DOCK.F40.P3s0n/L1005_ligand.pdbt
     RDKit          3D

 31 34  0  0  0  0  0  0  0  0999 V2000
   -4.3730   38.7860   21.5900 C   0  0  0  0  0  0  0  0  0  0  0  0
   -3.1120   39.4210   21.5740 C   0  0  0  0  0  0  0  0  0  0  0  0
   -2.1770   38.5620   21.1920 N   0  0  0  0  0  4  0  0  0  0  0  0
   -2.7960   37.3410   20.9520 C   0  0  0  0  0  0  0  0  0  0  0  0
   -2.2000   36.1590   20.5670 C   0  0  0  0  0  3  0  0  0  0  0  0
   -3.0300   35.0380   20.4230 C   0  0  0  0  0  3  0  0  0  0  0  0
   -4.3770   35.1520   20.6640 C   0  0  0  0  0  0  0  0  0  0  0  0
   -5.2070   34.0620   20.5240 F   0  0  0  0  0  0  0  0  0  0  0  0
   -4.9300   36.3610   21.0480 C   0  0  0  0  0  3  0  0  0  0  0  0
   -4.1440   37.4910   21.2000 C   0  0  0  0  0  0  0  0  0  0  0  0
   -2.9790   40.8220   21.9750 C   0  0  0  0  0  0  0  0  0  0  0  0
   -3.4010   41.2460   23.1060 O   0  0  0  0  0  1  0  0  0  0  0  0
   -2.4000   41.8000   21.2000 O   0  0  0  0  0  0  0  0  0  0  0  0
   -5.6230   39.4430   21.9840 C   0  0  0  0  0  2  0  0  0  0  0  0
   -7.1100   40.2550   20.1210 C   0  0  0  0  0  0  0  0  0  0  0  0
   -7.5080   39.0660   19.9210 O   0  0  0  0  0  0  0  0  0  0  0  0
   -6.1590   40.4600   21.1560 N   0  0  0  0  0  0  0  0  0  0  0  0
   -5.8620   41.4840   21.2800 H   0  0  0  0  0  0  0  0  0  0  0  0
   -8.7930   41.2000   18.6000 C   0  0  0  0  0  1  0  0  0  0  0  0
   -7.6000   41.3010   19.3440 O   0  0  0  0  0  0  0  0  0  0  0  0
   -0.7420   38.7540   21.0740 C   0  0  0  0  0  2  0  0  0  0  0  0
   -0.0740   38.5680   22.3470 C   0  0  0  0  0  0  0  0  0  0  0  0
   -0.7100   37.9150   23.3930 C   0  0  0  0  0  3  0  0  0  0  0  0
   -0.1210   37.5990   24.5960 C   0  0  0  0  0  3  0  0  0  0  0  0
    1.1980   37.9710   24.7500 C   0  0  0  0  0  3  0  0  0  0  0  0
    1.8710   38.6160   23.7630 C   0  0  0  0  0  0  0  0  0  0  0  0
    3.1610   39.0010   24.0020 C   0  0  0  0  0  3  0  0  0  0  0  0
    3.8840   39.7080   23.0490 C   0  0  0  0  0  3  0  0  0  0  0  0
    3.2540   40.0130   21.8470 C   0  0  0  0  0  3  0  0  0  0  0  0
    1.9540   39.6290   21.5980 C   0  0  0  0  0  3  0  0  0  0  0  0
    1.2440   38.9270   22.5400 C   0  0  0  0  0  0  0  0  0  0  0  0
 19 20  1  0
 20 15  1  0
 16 15  2  0
 15 17  1  0
  6  5  2  0
  6  7  1  0
  8  7  1  0
  5  4  1  0
  7  9  2  0
  4  3  1  0
  4 10  2  0
  9 10  1  0
 21  3  1  0
 21 22  1  0
 17 18  1  0
 17 14  1  0
  3  2  1  0
 10  1  1  0
 13 11  2  0
  2  1  2  0
  2 11  1  0
  1 14  1  0
 30 29  1  0
 30 31  2  0
 29 28  2  0
 11 12  1  0
 22 31  1  0
 22 23  2  0
 31 26  1  0
 28 27  1  0
 23 24  1  0
 26 27  2  0
 26 25  1  0
 24 25  2  0
M  RAD  8   5   2   6   2   9   2  14   3  19   2  21   3  23   2  24   2
M  CHG  2   3   1  12  -1
M  RAD  5  25   2  27   2  28   2  29   2  30   2
M  END
>  <_TriposChargeType>  (1) 
GASTEIGER

>  <SuCOS_score>  (1) 
0.3185041554395136

>  <Volume_score>  (1) 
0.4760799911611977

>  <Feature_score>  (1) 
0.16092831971782956

$$$$
