DOCK.F40.P3s0n/L1006_ligand.pdbt
     RDKit          3D

 42 46  0  0  0  0  0  0  0  0999 V2000
   -3.4090   38.1010   22.1180 C   0  0  0  0  0  3  0  0  0  0  0  0
   -1.1000   38.2320   23.3220 C   0  0  0  0  0  0  0  0  0  0  0  0
   -2.0350   38.5090   22.3150 C   0  0  0  0  0  0  0  0  0  0  0  0
   -1.3280   39.1820   21.3590 N   0  0  0  0  0  0  0  0  0  0  0  0
   -0.0590   39.3280   21.6910 C   0  0  0  0  0  0  0  0  0  0  0  0
    0.9880   39.9350   20.9880 C   0  0  0  0  0  3  0  0  0  0  0  0
    2.2490   39.9560   21.5160 C   0  0  0  0  0  0  0  0  0  0  0  0
    3.3870   40.6010   20.7800 C   0  0  0  0  0  1  0  0  0  0  0  0
    2.4250   39.3650   22.7400 C   0  0  0  0  0  3  0  0  0  0  0  0
    1.3950   38.7690   23.4330 C   0  0  0  0  0  3  0  0  0  0  0  0
    0.1160   38.7380   22.9190 C   0  0  0  0  0  0  0  0  0  0  0  0
   -1.7300   39.5560   20.4470 H   0  0  0  0  0  0  0  0  0  0  0  0
   -1.4260   37.6280   24.5880 C   0  0  0  0  0  2  0  0  0  0  0  0
   -1.4550   36.1300   24.7160 C   0  0  1  0  0  0  0  0  0  0  0  0
   -0.5990   35.4850   23.6020 C   0  0  0  0  0  1  0  0  0  0  0  0
   -0.9800   35.5870   26.0170 C   0  0  0  0  0  1  0  0  0  0  0  0
   -5.3090   35.9190   24.8980 C   0  0  0  0  0  1  0  0  0  0  0  0
   -3.8850   36.3620   25.0680 C   0  0  0  0  0  0  0  0  0  0  0  0
   -3.6330   37.4030   25.7240 O   0  0  0  0  0  0  0  0  0  0  0  0
   -2.8200   35.5930   24.4790 N   0  0  0  0  0  0  0  0  0  0  0  0
   -3.0070   34.7420   23.9400 H   0  0  0  0  0  0  0  0  0  0  0  0
   -4.2700   39.3100   21.8340 C   0  0  0  0  0  0  0  0  0  0  0  0
   -4.1620   40.4190   21.1740 C   0  0  0  0  0  0  0  0  0  0  0  0
   -3.1280   40.9780   20.4050 O   0  0  0  0  0  0  0  0  0  0  0  0
   -5.5050   40.9060   21.5050 C   0  0  1  0  0  0  0  0  0  0  0  0
   -6.4850   41.0060   20.3760 C   0  0  0  0  0  1  0  0  0  0  0  0
   -5.6150   39.6520   22.2490 C   0  0  0  0  0  0  0  0  0  0  0  0
   -6.5010   39.0960   22.9530 O   0  0  0  0  0  0  0  0  0  0  0  0
   -3.2510   40.9250   19.3950 H   0  0  0  0  0  0  0  0  0  0  0  0
   -5.3890   42.1420   22.3410 C   0  0  0  0  0  0  0  0  0  0  0  0
   -6.2710   43.2020   22.2120 C   0  0  0  0  0  3  0  0  0  0  0  0
   -6.1460   44.3380   22.9980 C   0  0  0  0  0  3  0  0  0  0  0  0
   -5.1370   44.4410   23.9300 C   0  0  0  0  0  0  0  0  0  0  0  0
   -4.9950   45.6720   24.7860 C   0  0  0  0  0  1  0  0  0  0  0  0
   -4.2550   43.4160   24.0800 C   0  0  0  0  0  3  0  0  0  0  0  0
   -4.3980   42.2950   23.2870 C   0  0  0  0  0  3  0  0  0  0  0  0
   -3.7700   37.0060   21.2420 C   0  0  0  0  0  0  0  0  0  0  0  0
   -5.0590   36.5620   21.2070 C   0  0  0  0  0  3  0  0  0  0  0  0
   -5.4480   35.5140   20.4000 C   0  0  0  0  0  3  0  0  0  0  0  0
   -4.5400   34.8590   19.5820 C   0  0  0  0  0  3  0  0  0  0  0  0
   -3.2390   35.2890   19.6010 C   0  0  0  0  0  3  0  0  0  0  0  0
   -2.8630   36.3360   20.4100 C   0  0  0  0  0  3  0  0  0  0  0  0
 29 24  1  0
 40 41  2  0
 40 39  1  0
 41 42  1  0
 25 26  1  6
 39 38  2  0
 24 23  1  0
 42 37  2  0
 12  4  1  0
  8  7  1  0
  6  7  2  0
  6  5  1  0
 23 25  1  0
 23 22  2  0
 38 37  1  0
 37  1  1  0
  4  5  1  0
  4  3  1  0
 25 27  1  0
 25 30  1  0
  7  9  1  0
  5 11  2  0
 22  1  1  0
 22 27  1  0
  1  3  1  0
 31 30  2  0
 31 32  1  0
 27 28  2  0
  3  2  2  0
 30 36  1  0
  9 10  2  0
 11  2  1  0
 11 10  1  0
 32 33  2  0
 36 35  2  0
  2 13  1  0
 14 15  1  6
 33 35  1  0
 33 34  1  0
 21 20  1  0
 20 14  1  0
 20 18  1  0
 13 14  1  0
 14 16  1  0
 17 18  1  0
 18 19  2  0
M  RAD  8   1   2   6   2   8   2   9   2  10   2  13   3  15   2  16   2
M  RAD  8  17   2  26   2  31   2  32   2  34   2  35   2  36   2  38   2
M  RAD  4  39   2  40   2  41   2  42   2
M  END
>  <_TriposChargeType>  (1) 
GASTEIGER

>  <SuCOS_score>  (1) 
0.3358333098439711

>  <Volume_score>  (1) 
0.518129560026531

>  <Feature_score>  (1) 
0.15353705966141115

$$$$
