DOCK.F40.P3s0n/L1002_ligand.pdbt
     RDKit          3D

 40 44  0  0  0  0  0  0  0  0999 V2000
   -3.0460   37.5670   23.0050 C   0  0  0  0  0  3  0  0  0  0  0  0
    2.6860   39.3880   22.8150 C   0  0  0  0  0  0  0  0  0  0  0  0
    2.7890   38.8010   24.0600 C   0  0  0  0  0  3  0  0  0  0  0  0
    1.6870   38.2010   24.6020 C   0  0  0  0  0  3  0  0  0  0  0  0
    0.4890   38.1940   23.8920 C   0  0  0  0  0  0  0  0  0  0  0  0
   -0.7580   37.6830   24.1640 C   0  0  0  0  0  0  0  0  0  0  0  0
   -1.6120   37.9470   23.1130 C   0  0  0  0  0  0  0  0  0  0  0  0
   -0.8970   38.6220   22.1880 N   0  0  0  0  0  0  0  0  0  0  0  0
    0.3750   38.7810   22.6370 C   0  0  0  0  0  0  0  0  0  0  0  0
    1.5010   39.3860   22.1000 C   0  0  0  0  0  3  0  0  0  0  0  0
   -1.1940   38.9930   21.2580 H   0  0  0  0  0  0  0  0  0  0  0  0
    3.7980   40.2000   20.7670 C   0  0  0  0  0  1  0  0  0  0  0  0
    3.9170   40.0270   22.2690 C   0  0  0  0  0  2  0  0  0  0  0  0
   -1.1140   36.9670   25.4000 C   0  0  0  0  0  2  0  0  0  0  0  0
   -0.5550   35.5930   25.4860 C   0  0  0  0  0  2  0  0  0  0  0  0
   -1.3780   34.6790   24.7360 N   0  0  0  0  0  0  0  0  0  0  0  0
   -1.0710   34.1630   23.4710 C   0  0  0  0  0  0  0  0  0  0  0  0
   -1.9920   33.2030   22.7530 C   0  0  0  0  0  1  0  0  0  0  0  0
    0.0060   34.5080   22.9170 O   0  0  0  0  0  0  0  0  0  0  0  0
   -2.2910   34.3770   25.1840 H   0  0  0  0  0  0  0  0  0  0  0  0
   -3.9240   38.7860   22.9850 C   0  0  0  0  0  0  0  0  0  0  0  0
   -4.0210   39.7240   22.0920 C   0  0  0  0  0  0  0  0  0  0  0  0
   -3.2900   39.8030   20.8980 O   0  0  0  0  0  0  0  0  0  0  0  0
   -5.0200   40.7520   22.4690 C   0  0  0  0  0  3  0  0  0  0  0  0
   -5.7220   40.2050   23.6660 C   0  0  0  0  0  2  0  0  0  0  0  0
   -4.8530   39.0760   24.0690 C   0  0  0  0  0  0  0  0  0  0  0  0
   -4.9350   38.4810   25.1890 O   0  0  0  0  0  0  0  0  0  0  0  0
   -3.8210   39.9750   20.0510 H   0  0  0  0  0  0  0  0  0  0  0  0
   -5.9690   41.0320   21.3640 C   0  0  0  0  0  0  0  0  0  0  0  0
   -6.5120   39.9870   20.6560 C   0  0  0  0  0  3  0  0  0  0  0  0
   -7.4020   40.2040   19.6120 C   0  0  0  0  0  3  0  0  0  0  0  0
   -7.7490   41.5030   19.2790 C   0  0  0  0  0  3  0  0  0  0  0  0
   -7.2020   42.5520   19.9930 C   0  0  0  0  0  3  0  0  0  0  0  0
   -6.3200   42.3140   21.0250 C   0  0  0  0  0  3  0  0  0  0  0  0
   -3.2540   36.7360   21.8000 C   0  0  0  0  0  0  0  0  0  0  0  0
   -2.1970   36.5520   20.9460 C   0  0  0  0  0  3  0  0  0  0  0  0
   -2.3270   35.7920   19.8100 C   0  0  0  0  0  3  0  0  0  0  0  0
   -3.5350   35.2020   19.5110 C   0  0  0  0  0  3  0  0  0  0  0  0
   -4.5820   35.4000   20.3830 C   0  0  0  0  0  3  0  0  0  0  0  0
   -4.4550   36.1620   21.5260 C   0  0  0  0  0  3  0  0  0  0  0  0
 32 31  1  0
 32 33  2  0
 38 37  1  0
 38 39  2  0
 31 30  2  0
 37 36  2  0
 33 34  1  0
 28 23  1  0
 39 40  1  0
 30 29  1  0
 12 13  1  0
 23 22  1  0
 36 35  1  0
 34 29  2  0
 11  8  1  0
 29 24  1  0
 40 35  2  0
 35  1  1  0
 22 24  1  0
 22 21  2  0
 10  9  1  0
 10  2  2  0
  8  9  1  0
  8  7  1  0
 13  2  1  0
 24 25  1  0
  9  5  2  0
 18 17  1  0
  2  3  1  0
 19 17  2  0
 21  1  1  0
 21 26  1  0
  1  7  1  0
  7  6  2  0
 17 16  1  0
 25 26  1  0
  5  6  1  0
  5  4  1  0
  3  4  2  0
 26 27  2  0
  6 14  1  0
 16 20  1  0
 16 15  1  0
 14 15  1  0
M  RAD  8   1   2   3   2   4   2  10   2  12   2  13   3  14   3  15   3
M  RAD  8  18   2  24   2  25   3  30   2  31   2  32   2  33   2  34   2
M  RAD  5  36   2  37   2  38   2  39   2  40   2
M  END
>  <_TriposChargeType>  (1) 
GASTEIGER

>  <SuCOS_score>  (1) 
0.30385553297781903

>  <Volume_score>  (1) 
0.5049889135254989

>  <Feature_score>  (1) 
0.1027221524301392

$$$$
