DOCK.F40.P3s0n/L1004_ligand.pdbt
     RDKit          3D

 33 36  0  0  0  0  0  0  0  0999 V2000
   -2.4860   38.8960   22.5500 C   0  0  0  0  0  3  0  0  0  0  0  0
    0.0230   38.7730   23.1310 C   0  0  0  0  0  0  0  0  0  0  0  0
   -1.0760   39.1860   22.3890 C   0  0  0  0  0  0  0  0  0  0  0  0
   -0.5960   39.9330   21.3530 N   0  0  0  0  0  0  0  0  0  0  0  0
    0.7390   40.0210   21.3850 C   0  0  0  0  0  0  0  0  0  0  0  0
    1.6640   40.6530   20.5750 C   0  0  0  0  0  3  0  0  0  0  0  0
    3.0160   40.5880   20.8430 C   0  0  0  0  0  3  0  0  0  0  0  0
    3.4310   39.8740   21.9470 C   0  0  0  0  0  0  0  0  0  0  0  0
    4.7550   39.7910   22.2270 F   0  0  0  0  0  0  0  0  0  0  0  0
    2.4830   39.2440   22.7500 C   0  0  0  0  0  3  0  0  0  0  0  0
    1.1300   39.2870   22.5110 C   0  0  0  0  0  0  0  0  0  0  0  0
   -1.1640   40.4090   20.5880 H   0  0  0  0  0  0  0  0  0  0  0  0
   -0.1980   36.5030   24.2050 C   0  0  0  0  0  1  0  0  0  0  0  0
   -0.0880   37.9990   24.3500 C   0  0  0  0  0  3  0  0  0  0  0  0
    1.2020   38.1960   25.2000 C   0  0  0  0  0  1  0  0  0  0  0  0
   -3.3530   40.1410   22.6010 C   0  0  0  0  0  0  0  0  0  0  0  0
   -3.5540   41.0480   21.6670 C   0  0  0  0  0  0  0  0  0  0  0  0
   -2.9450   40.9770   20.4010 O   0  0  0  0  0  0  0  0  0  0  0  0
   -4.4770   42.1160   22.1160 C   0  0  0  0  0  3  0  0  0  0  0  0
   -4.7980   41.7750   23.4620 N   0  0  0  0  0  0  0  0  0  0  0  0
   -4.1270   40.5670   23.7620 C   0  0  0  0  0  0  0  0  0  0  0  0
   -4.1500   39.9020   24.8540 O   0  0  0  0  0  0  0  0  0  0  0  0
   -3.5240   40.9830   19.5640 H   0  0  0  0  0  0  0  0  0  0  0  0
   -5.4160   42.3260   24.0920 H   0  0  0  0  0  0  0  0  0  0  0  0
   -5.6930   42.2320   21.2280 C   0  0  0  0  0  3  0  0  0  0  0  0
   -6.3400   40.8770   21.0160 C   0  0  0  0  0  1  0  0  0  0  0  0
   -6.6960   43.1230   21.9130 C   0  0  0  0  0  1  0  0  0  0  0  0
   -3.0800   37.8440   21.7260 C   0  0  0  0  0  0  0  0  0  0  0  0
   -2.3510   37.0380   20.8710 C   0  0  0  0  0  3  0  0  0  0  0  0
   -2.9450   36.0390   20.1240 C   0  0  0  0  0  3  0  0  0  0  0  0
   -4.3000   35.8000   20.1990 C   0  0  0  0  0  3  0  0  0  0  0  0
   -5.0340   36.5960   21.0460 C   0  0  0  0  0  3  0  0  0  0  0  0
   -4.4320   37.5830   21.7820 C   0  0  0  0  0  3  0  0  0  0  0  0
 23 18  1  0
 30 31  1  0
 30 29  2  0
 31 32  2  0
 18 17  1  0
  6  7  2  0
  6  5  1  0
 12  4  1  0
  7  8  1  0
 29 28  1  0
 26 25  1  0
 32 33  1  0
 25 27  1  0
 25 19  1  0
  4  5  1  0
  4  3  1  0
  5 11  2  0
 17 19  1  0
 17 16  2  0
 28 33  2  0
 28  1  1  0
  8  9  1  0
  8 10  2  0
 19 20  1  0
  3  1  1  0
  3  2  2  0
 11 10  1  0
 11  2  1  0
  1 16  1  0
 16 21  1  0
  2 14  1  0
 20 21  1  0
 20 24  1  0
 21 22  2  0
 13 14  1  0
 14 15  1  0
M  RAD  8   1   2   6   2   7   2  10   2  13   2  14   2  15   2  19   2
M  RAD  8  25   2  26   2  27   2  29   2  30   2  31   2  32   2  33   2
M  END
>  <_TriposChargeType>  (1) 
GASTEIGER

>  <SuCOS_score>  (1) 
0.27875843289635005

>  <Volume_score>  (1) 
0.48414539829853054

>  <Feature_score>  (1) 
0.07337146749416956

$$$$
