DOCK.F40.P3s0n/L1001_ligand.pdbt
     RDKit          3D

 32 35  0  0  0  0  0  0  0  0999 V2000
   -4.3730   38.7290   21.5060 C   0  0  0  0  0  0  0  0  0  0  0  0
   -3.1840   39.4660   21.6190 C   0  0  0  0  0  0  0  0  0  0  0  0
   -2.1500   38.6880   21.2870 N   0  0  0  0  0  4  0  0  0  0  0  0
   -2.6450   37.4810   20.9680 C   0  0  0  0  0  0  0  0  0  0  0  0
   -1.9880   36.3070   20.5520 C   0  0  0  0  0  3  0  0  0  0  0  0
   -2.6800   35.1700   20.2700 C   0  0  0  0  0  3  0  0  0  0  0  0
   -4.0510   35.1430   20.3880 C   0  0  0  0  0  0  0  0  0  0  0  0
   -4.7790   34.0360   20.1190 F   0  0  0  0  0  0  0  0  0  0  0  0
   -4.6840   36.3060   20.8000 C   0  0  0  0  0  3  0  0  0  0  0  0
   -4.0040   37.4840   21.0940 C   0  0  0  0  0  0  0  0  0  0  0  0
   -3.1460   40.8570   22.0390 C   0  0  0  0  0  0  0  0  0  0  0  0
   -3.5990   41.1940   23.1400 O   0  0  0  0  0  1  0  0  0  0  0  0
   -2.6030   41.8000   21.1990 O   0  0  0  0  0  0  0  0  0  0  0  0
   -5.6930   39.2620   21.7870 C   0  0  0  0  0  2  0  0  0  0  0  0
   -6.9100   40.4000   20.0020 C   0  0  0  0  0  0  0  0  0  0  0  0
   -6.2710   41.4690   20.2040 O   0  0  0  0  0  0  0  0  0  0  0  0
   -6.6890   39.2280   20.7760 N   0  0  0  0  0  0  0  0  0  0  0  0
   -7.4820   38.0450   20.4580 C   0  0  0  0  0  1  0  0  0  0  0  0
   -7.8470   40.3830   18.9950 O   0  0  0  0  0  0  0  0  0  0  0  0
   -9.9980   41.0010   18.2030 C   0  0  0  0  0  1  0  0  0  0  0  0
   -8.6260   41.4910   18.6010 C   0  0  0  0  0  2  0  0  0  0  0  0
   -0.7560   39.0180   21.2580 C   0  0  0  0  0  2  0  0  0  0  0  0
   -0.0520   38.6690   22.5130 C   0  0  0  0  0  0  0  0  0  0  0  0
   -0.6380   37.9990   23.5660 C   0  0  0  0  0  3  0  0  0  0  0  0
    0.0660   37.6910   24.7290 C   0  0  0  0  0  3  0  0  0  0  0  0
    1.3960   38.0860   24.7990 C   0  0  0  0  0  3  0  0  0  0  0  0
    2.0220   38.7600   23.7690 C   0  0  0  0  0  0  0  0  0  0  0  0
    3.3390   39.1430   23.8550 C   0  0  0  0  0  3  0  0  0  0  0  0
    3.9270   39.8100   22.8110 C   0  0  0  0  0  3  0  0  0  0  0  0
    3.2440   40.1190   21.6590 C   0  0  0  0  0  3  0  0  0  0  0  0
    1.9160   39.7200   21.6000 C   0  0  0  0  0  3  0  0  0  0  0  0
    1.2720   39.0460   22.6180 C   0  0  0  0  0  0  0  0  0  0  0  0
 20 21  1  0
 21 19  1  0
 19 15  1  0
 15 16  2  0
 15 17  1  0
  8  7  1  0
  6  7  2  0
  6  5  1  0
  7  9  1  0
 18 17  1  0
  5  4  2  0
 17 14  1  0
  9 10  2  0
  4 10  1  0
  4  3  1  0
 10  1  1  0
 13 11  2  0
 22  3  1  0
 22 23  1  0
  3  2  1  0
  1  2  2  0
  1 14  1  0
 31 30  1  0
 31 32  2  0
  2 11  1  0
 30 29  2  0
 11 12  1  0
 23 32  1  0
 23 24  2  0
 32 27  1  0
 29 28  1  0
 24 25  1  0
 27 28  2  0
 27 26  1  0
 25 26  2  0
M  RAD  8   5   2   6   2   9   2  14   3  18   2  20   2  21   3  22   3
M  CHG  2   3   1  12  -1
M  RAD  7  24   2  25   2  26   2  28   2  29   2  30   2  31   2
M  END
>  <_TriposChargeType>  (1) 
GASTEIGER

>  <SuCOS_score>  (1) 
0.32632879225436945

>  <Volume_score>  (1) 
0.48734946414760805

>  <Feature_score>  (1) 
0.16530812036113088

$$$$
