DOCK.F40.P3s0n/L1011_ligand.pdbt
     RDKit          3D

 30 33  0  0  0  0  0  0  0  0999 V2000
   -4.3420   38.6800   21.6070 C   0  0  0  0  0  0  0  0  0  0  0  0
   -3.1450   39.3860   21.6100 C   0  0  0  0  0  0  0  0  0  0  0  0
   -2.1710   38.5580   21.1170 N   0  0  0  0  0  4  0  0  0  0  0  0
   -2.7080   37.3650   20.8020 C   0  0  0  0  0  0  0  0  0  0  0  0
   -2.2000   36.1910   20.2700 C   0  0  0  0  0  3  0  0  0  0  0  0
   -2.9850   35.0810   20.0290 C   0  0  0  0  0  3  0  0  0  0  0  0
   -4.3270   35.1780   20.3440 C   0  0  0  0  0  0  0  0  0  0  0  0
   -5.1060   34.0930   20.1160 F   0  0  0  0  0  0  0  0  0  0  0  0
   -4.8440   36.3320   20.8700 C   0  0  0  0  0  3  0  0  0  0  0  0
   -4.0430   37.4310   21.1020 C   0  0  0  0  0  0  0  0  0  0  0  0
   -3.0610   40.7730   22.0250 C   0  0  0  0  0  0  0  0  0  0  0  0
   -3.4220   41.1260   23.1940 O   0  0  0  0  0  1  0  0  0  0  0  0
   -2.5990   41.7860   21.2000 O   0  0  0  0  0  0  0  0  0  0  0  0
   -5.6890   39.1460   22.0180 C   0  0  0  0  0  2  0  0  0  0  0  0
   -7.6720   40.8850   19.2000 C   0  0  0  0  0  1  0  0  0  0  0  0
   -6.7810   40.7450   20.3480 N   0  0  0  0  0  0  0  0  0  0  0  0
   -6.2030   41.9430   20.8720 C   0  0  0  0  0  1  0  0  0  0  0  0
   -6.5430   39.4580   20.8620 C   0  0  0  0  0  0  0  0  0  0  0  0
   -7.1020   38.4590   20.2960 O   0  0  0  0  0  0  0  0  0  0  0  0
   -0.7830   38.9560   21.0370 C   0  0  0  0  0  2  0  0  0  0  0  0
   -0.1130   38.6920   22.3360 C   0  0  0  0  0  0  0  0  0  0  0  0
   -0.7920   37.9940   23.3310 C   0  0  0  0  0  3  0  0  0  0  0  0
   -0.1540   37.6260   24.5070 C   0  0  0  0  0  3  0  0  0  0  0  0
    1.1630   37.9570   24.6870 C   0  0  0  0  0  3  0  0  0  0  0  0
    1.8830   38.6460   23.7430 C   0  0  0  0  0  0  0  0  0  0  0  0
    3.2130   39.0000   23.9990 C   0  0  0  0  0  3  0  0  0  0  0  0
    3.8750   39.7360   23.0410 C   0  0  0  0  0  3  0  0  0  0  0  0
    3.2900   40.1240   21.8710 C   0  0  0  0  0  3  0  0  0  0  0  0
    1.9510   39.7420   21.6610 C   0  0  0  0  0  3  0  0  0  0  0  0
    1.2310   39.0080   22.5710 C   0  0  0  0  0  0  0  0  0  0  0  0
 15 16  1  0
  6  5  2  0
  6  7  1  0
  8  7  1  0
  5  4  1  0
 19 18  2  0
  7  9  2  0
 16 18  1  0
 16 17  1  0
  4 10  2  0
  4  3  1  0
 18 14  1  0
  9 10  1  0
 20  3  1  0
 20 21  1  0
 10  1  1  0
  3  2  1  0
 13 11  2  0
  1  2  2  0
  1 14  1  0
  2 11  1  0
 29 28  1  0
 29 30  2  0
 28 27  2  0
 11 12  1  0
 21 30  1  0
 21 22  2  0
 30 25  1  0
 27 26  1  0
 22 23  1  0
 25 26  2  0
 25 24  1  0
 23 24  2  0
M  RAD  8   5   2   6   2   9   2  14   3  15   2  17   2  20   3  22   2
M  CHG  2   3   1  12  -1
M  RAD  6  23   2  24   2  26   2  27   2  28   2  29   2
M  END
>  <_TriposChargeType>  (1) 
GASTEIGER

>  <SuCOS_score>  (1) 
0.33476421949025154

>  <Volume_score>  (1) 
0.5064633742127942

>  <Feature_score>  (1) 
0.16306506476770885

$$$$
