DOCK.F40.P3s0n/L1016_ligand.pdbt
     RDKit          3D

 29 32  0  0  0  0  0  0  0  0999 V2000
   -4.3960   38.6720   21.7130 C   0  0  0  0  0  0  0  0  0  0  0  0
   -3.2350   39.4510   21.8460 C   0  0  0  0  0  0  0  0  0  0  0  0
   -2.1940   38.7790   21.4020 N   0  0  0  0  0  4  0  0  0  0  0  0
   -2.6890   37.5240   20.9710 C   0  0  0  0  0  0  0  0  0  0  0  0
   -2.0810   36.4310   20.4230 C   0  0  0  0  0  3  0  0  0  0  0  0
   -2.7730   35.3080   20.0710 C   0  0  0  0  0  3  0  0  0  0  0  0
   -4.1370   35.2700   20.2750 C   0  0  0  0  0  3  0  0  0  0  0  0
   -4.7920   36.3420   20.8210 C   0  0  0  0  0  3  0  0  0  0  0  0
   -4.0390   37.4730   21.1660 C   0  0  0  0  0  0  0  0  0  0  0  0
   -3.2560   40.8010   22.3970 C   0  0  0  0  0  0  0  0  0  0  0  0
   -2.8070   41.8000   21.8010 O   0  0  0  0  0  1  0  0  0  0  0  0
   -3.8000   41.0310   23.6490 O   0  0  0  0  0  0  0  0  0  0  0  0
   -5.7760   39.0420   22.0940 C   0  0  0  0  0  2  0  0  0  0  0  0
   -7.6470   40.7720   19.1880 C   0  0  0  0  0  1  0  0  0  0  0  0
   -6.8280   40.5670   20.3590 N   0  0  0  0  0  0  0  0  0  0  0  0
   -6.1990   41.6840   21.0020 C   0  0  0  0  0  1  0  0  0  0  0  0
   -6.6210   39.2700   20.8870 C   0  0  0  0  0  0  0  0  0  0  0  0
   -7.1480   38.2640   20.3400 O   0  0  0  0  0  0  0  0  0  0  0  0
   -0.8210   39.0360   21.2010 C   0  0  0  0  0  2  0  0  0  0  0  0
    0.1230   38.7380   22.3430 C   0  0  0  0  0  0  0  0  0  0  0  0
   -0.3760   38.1050   23.4520 C   0  0  0  0  0  3  0  0  0  0  0  0
    0.9400   38.0950   24.5280 S   0  0  0  0  0  0  0  0  0  0  0  0
    2.1010   38.8830   23.5670 C   0  0  0  0  0  0  0  0  0  0  0  0
    3.4530   39.2000   23.7620 C   0  0  0  0  0  3  0  0  0  0  0  0
    4.1860   39.8000   22.7670 C   0  0  0  0  0  3  0  0  0  0  0  0
    3.5170   40.0610   21.6020 C   0  0  0  0  0  0  0  0  0  0  0  0
    4.2220   40.6560   20.6030 F   0  0  0  0  0  0  0  0  0  0  0  0
    2.2020   39.7600   21.3980 C   0  0  0  0  0  3  0  0  0  0  0  0
    1.4210   39.1430   22.4060 C   0  0  0  0  0  0  0  0  0  0  0  0
 14 15  1  0
  6  7  2  0
  6  5  1  0
  7  8  1  0
 18 17  2  0
 15 17  1  0
 15 16  1  0
  5  4  2  0
 27 26  1  0
  8  9  2  0
 17 13  1  0
  4  9  1  0
  4  3  1  0
  9  1  1  0
 19  3  1  0
 19 20  1  0
 28 26  1  0
 28 29  2  0
  3  2  1  0
 26 25  2  0
  1  2  2  0
  1 13  1  0
 11 10  1  0
  2 10  1  0
 20 29  1  0
 20 21  2  0
 10 12  2  0
 29 23  1  0
 25 24  1  0
 21 22  1  0
 23 24  2  0
 23 22  1  0
M  RAD  8   5   2   6   2   7   2   8   2  13   3  14   2  16   2  19   3
M  CHG  2   3   1  11  -1
M  RAD  4  21   2  24   2  25   2  28   2
M  END
>  <_TriposChargeType>  (1) 
GASTEIGER

>  <SuCOS_score>  (1) 
0.3389910701391906

>  <Volume_score>  (1) 
0.5219312783117888

>  <Feature_score>  (1) 
0.1560508619665924

$$$$
