DOCK.F40.P3s0n/L1013_ligand.pdbt
     RDKit          3D

 27 30  0  0  0  0  0  0  0  0999 V2000
   -4.4110   38.6940   21.7270 N   0  0  0  0  0  4  0  0  0  0  0  0
   -3.3130   39.4820   21.9090 C   0  0  0  0  0  0  0  0  0  0  0  0
   -2.1730   38.8420   21.4800 C   0  0  0  0  0  0  0  0  0  0  0  0
   -2.6470   37.5940   21.0140 C   0  0  0  0  0  0  0  0  0  0  0  0
   -2.0030   36.5180   20.4410 C   0  0  0  0  0  3  0  0  0  0  0  0
   -2.7070   35.4000   20.0400 C   0  0  0  0  0  3  0  0  0  0  0  0
   -4.0670   35.3540   20.2120 C   0  0  0  0  0  3  0  0  0  0  0  0
   -4.7260   36.4150   20.7800 C   0  0  0  0  0  3  0  0  0  0  0  0
   -3.9900   37.5470   21.1800 C   0  0  0  0  0  0  0  0  0  0  0  0
   -3.4360   40.8310   22.4640 C   0  0  0  0  0  0  0  0  0  0  0  0
   -3.0000   41.8000   21.7450 O   0  0  0  0  0  1  0  0  0  0  0  0
   -3.9790   41.1420   23.6910 O   0  0  0  0  0  0  0  0  0  0  0  0
   -5.8080   38.9660   22.0460 C   0  0  0  0  0  2  0  0  0  0  0  0
   -6.5020   39.6620   20.9030 C   0  0  0  0  0  2  0  0  0  0  0  0
   -7.8010   37.8070   20.4000 C   0  0  0  0  0  1  0  0  0  0  0  0
   -7.7470   39.1810   20.6000 O   0  0  0  0  0  0  0  0  0  0  0  0
   -0.7770   39.2930   21.4000 C   0  0  0  0  0  2  0  0  0  0  0  0
    0.1990   39.0000   22.3960 C   0  0  0  0  0  0  0  0  0  0  0  0
   -0.1730   38.4030   23.6190 C   0  0  0  0  0  3  0  0  0  0  0  0
    0.6820   38.1470   24.6410 C   0  0  0  0  0  3  0  0  0  0  0  0
    2.0020   38.4710   24.5290 C   0  0  0  0  0  3  0  0  0  0  0  0
    2.4350   39.0560   23.3680 C   0  0  0  0  0  0  0  0  0  0  0  0
    3.7750   39.4000   23.2420 C   0  0  0  0  0  3  0  0  0  0  0  0
    4.2690   40.0000   22.0970 C   0  0  0  0  0  3  0  0  0  0  0  0
    3.3950   40.2480   21.0870 C   0  0  0  0  0  3  0  0  0  0  0  0
    2.0770   39.9030   21.2250 C   0  0  0  0  0  3  0  0  0  0  0  0
    1.5320   39.3070   22.3320 C   0  0  0  0  0  0  0  0  0  0  0  0
  6  7  2  0
  6  5  1  0
  7  8  1  0
 15 16  1  0
  5  4  2  0
 16 14  1  0
  8  9  2  0
 14 13  1  0
  4  9  1  0
  4  3  1  0
 25 26  1  0
 25 24  2  0
  9  1  1  0
 26 27  2  0
 17  3  1  0
 17 18  1  0
  3  2  2  0
  1  2  1  0
  1 13  1  0
 11 10  1  0
  2 10  1  0
 24 23  1  0
 27 18  1  0
 27 22  1  0
 18 19  2  0
 10 12  2  0
 23 22  2  0
 22 21  1  0
 19 20  1  0
 21 20  2  0
M  RAD  8   5   2   6   2   7   2   8   2  13   3  14   3  15   2  17   3
M  CHG  2   1   1  11  -1
M  RAD  7  19   2  20   2  21   2  23   2  24   2  25   2  26   2
M  END
>  <_TriposChargeType>  (1) 
GASTEIGER

>  <SuCOS_score>  (1) 
0.33612659867867334

>  <Volume_score>  (1) 
0.4611645122085958

>  <Feature_score>  (1) 
0.2110886851487509

$$$$
