DOCK.F40.P3s0n/L1010_ligand.pdbt
     RDKit          3D

 24 27  0  0  0  0  0  0  0  0999 V2000
   -3.1530   39.3870   21.6000 C   0  0  0  0  0  0  0  0  0  0  0  0
   -4.3590   38.7260   21.4950 C   0  0  0  0  0  3  0  0  0  0  0  0
   -4.0700   37.4360   21.1170 C   0  0  0  0  0  0  0  0  0  0  0  0
   -4.8900   36.3280   20.8620 C   0  0  0  0  0  3  0  0  0  0  0  0
   -4.3650   35.1150   20.4910 C   0  0  0  0  0  3  0  0  0  0  0  0
   -3.0100   35.0090   20.3730 C   0  0  0  0  0  3  0  0  0  0  0  0
   -2.2010   36.0970   20.6230 C   0  0  0  0  0  3  0  0  0  0  0  0
   -2.7190   37.3340   21.0000 C   0  0  0  0  0  0  0  0  0  0  0  0
   -2.1720   38.5210   21.2950 N   0  0  0  0  0  0  0  0  0  0  0  0
   -3.5180   41.1530   23.0740 O   0  0  0  0  0  1  0  0  0  0  0  0
   -3.0300   40.7920   21.9830 C   0  0  0  0  0  0  0  0  0  0  0  0
   -2.4000   41.7420   21.2000 O   0  0  0  0  0  0  0  0  0  0  0  0
   -0.7750   38.8000   21.2810 C   0  0  0  0  0  2  0  0  0  0  0  0
   -0.0800   38.5050   22.5340 C   0  0  0  0  0  0  0  0  0  0  0  0
   -0.6640   37.8400   23.5860 C   0  0  0  0  0  3  0  0  0  0  0  0
    0.0910   37.6200   24.7150 C   0  0  0  0  0  3  0  0  0  0  0  0
    1.4000   38.0370   24.8320 C   0  0  0  0  0  3  0  0  0  0  0  0
    2.0000   38.7110   23.7690 C   0  0  0  0  0  0  0  0  0  0  0  0
    3.3070   39.1370   23.8660 C   0  0  0  0  0  3  0  0  0  0  0  0
    3.8700   39.8000   22.7980 C   0  0  0  0  0  3  0  0  0  0  0  0
    3.1560   40.0380   21.6600 C   0  0  0  0  0  0  0  0  0  0  0  0
    3.6750   40.6910   20.5820 F   0  0  0  0  0  0  0  0  0  0  0  0
    1.8590   39.6000   21.6020 C   0  0  0  0  0  3  0  0  0  0  0  0
    1.2310   38.9210   22.6530 C   0  0  0  0  0  0  0  0  0  0  0  0
  6  5  2  0
  6  7  1  0
  5  4  1  0
 22 21  1  0
  7  8  2  0
  4  3  2  0
  8  3  1  0
  8  9  1  0
  3  2  1  0
 12 11  2  0
 13  9  1  0
 13 14  1  0
  9  1  1  0
  2  1  2  0
  1 11  1  0
 23 21  1  0
 23 24  2  0
 21 20  2  0
 11 10  1  0
 14 24  1  0
 14 15  2  0
 24 18  1  0
 20 19  1  0
 15 16  1  0
 18 19  2  0
 18 17  1  0
 16 17  2  0
M  RAD  8   2   2   4   2   5   2   6   2   7   2  13   3  15   2  16   2
M  CHG  1  10  -1
M  RAD  4  17   2  19   2  20   2  23   2
M  END
>  <_TriposChargeType>  (1) 
GASTEIGER

>  <SuCOS_score>  (1) 
0.2972999987524857

>  <Volume_score>  (1) 
0.40161308142746655

>  <Feature_score>  (1) 
0.1929869160775049

$$$$
