DOCK.F40.P3s0n/L1017_ligand.pdbt
     RDKit          3D

 31 34  0  0  0  0  0  0  0  0999 V2000
   -4.3160   39.1860   21.4180 C   0  0  0  0  0  0  0  0  0  0  0  0
   -3.1030   39.8190   21.5540 C   0  0  0  0  0  0  0  0  0  0  0  0
   -2.0850   38.9740   21.4410 N   0  0  0  0  0  4  0  0  0  0  0  0
   -2.5940   37.7600   21.2300 C   0  0  0  0  0  0  0  0  0  0  0  0
   -2.0580   36.4880   21.0490 C   0  0  0  0  0  3  0  0  0  0  0  0
   -2.7770   35.3480   20.8510 C   0  0  0  0  0  3  0  0  0  0  0  0
   -4.1750   35.4470   20.8300 C   0  0  0  0  0  0  0  0  0  0  0  0
   -4.9190   34.3480   20.6610 F   0  0  0  0  0  0  0  0  0  0  0  0
   -4.7470   36.6940   21.0000 C   0  0  0  0  0  3  0  0  0  0  0  0
   -4.0040   37.8370   21.1980 C   0  0  0  0  0  0  0  0  0  0  0  0
   -3.0340   41.3080   21.7430 C   0  0  0  0  0  0  0  0  0  0  0  0
   -2.6000   42.0000   20.8000 O   0  0  0  0  0  1  0  0  0  0  0  0
   -3.3990   41.9650   22.8890 O   0  0  0  0  0  0  0  0  0  0  0  0
   -5.6410   39.6550   21.7850 C   0  0  0  0  0  2  0  0  0  0  0  0
   -5.8240   40.6270   22.8010 N   0  0  0  0  0  0  0  0  0  0  0  0
   -6.5460   41.3140   22.7970 H   0  0  0  0  0  0  0  0  0  0  0  0
   -6.4370   40.7340   25.5940 C   0  0  0  0  0  1  0  0  0  0  0  0
   -5.8000   39.7150   24.2970 S   0  0  2  0  0  6  0  0  0  0  0  0
   -4.4850   39.1670   24.5990 O   0  0  0  0  0  0  0  0  0  0  0  0
   -6.8000   38.5420   24.1230 O   0  0  0  0  0  0  0  0  0  0  0  0
   -0.6890   39.3220   21.3890 C   0  0  0  0  0  2  0  0  0  0  0  0
    0.0650   38.9020   22.5720 C   0  0  0  0  0  0  0  0  0  0  0  0
   -0.4810   38.2570   23.6240 C   0  0  0  0  0  3  0  0  0  0  0  0
    0.2530   37.9090   24.7290 C   0  0  0  0  0  3  0  0  0  0  0  0
    1.6000   38.2150   24.8010 C   0  0  0  0  0  3  0  0  0  0  0  0
    2.1680   38.8900   23.7050 C   0  0  0  0  0  0  0  0  0  0  0  0
    3.5110   39.1970   23.7580 C   0  0  0  0  0  3  0  0  0  0  0  0
    4.0960   39.8470   22.7000 C   0  0  0  0  0  3  0  0  0  0  0  0
    3.3800   40.1980   21.5870 C   0  0  0  0  0  3  0  0  0  0  0  0
    2.0660   39.8760   21.5650 C   0  0  0  0  0  3  0  0  0  0  0  0
    1.4040   39.2130   22.6300 C   0  0  0  0  0  0  0  0  0  0  0  0
  8  7  1  0
 12 11  1  0
  7  6  2  0
  7  9  1  0
  6  5  1  0
  9 10  2  0
  5  4  2  0
 10  4  1  0
 10  1  1  0
  4  3  1  0
 21  3  1  0
 21 22  1  0
  1  2  2  0
  1 14  1  0
  3  2  1  0
  2 11  1  0
 30 29  1  0
 30 31  2  0
 29 28  2  0
 11 13  2  0
 14 15  1  0
 22 31  1  0
 22 23  2  0
 31 26  1  0
 28 27  1  0
 16 15  1  0
 15 18  1  0
 23 24  1  0
 26 27  2  0
 26 25  1  0
 20 18  2  0
 18 19  2  0
 18 17  1  1
 24 25  2  0
M  RAD  8   5   2   6   2   9   2  14   3  17   2  21   3  23   2  24   2
M  CHG  2   3   1  12  -1
M  RAD  5  25   2  27   2  28   2  29   2  30   2
M  END
>  <_TriposChargeType>  (1) 
GASTEIGER

>  <SuCOS_score>  (1) 
0.3217212345299567

>  <Volume_score>  (1) 
0.4549773505689979

>  <Feature_score>  (1) 
0.18846511849091546

$$$$
