DOCK.F40.P4k2y/L1009_ligand.pdbt
     RDKit          3D

 34 38  0  0  0  0  0  0  0  0999 V2000
   -1.9560   38.1830   23.0120 C   0  0  0  0  0  3  0  0  0  0  0  0
    0.4800   37.8390   25.0610 C   0  0  0  0  0  1  0  0  0  0  0  0
    0.5130   38.4300   23.6890 C   0  0  0  0  0  0  0  0  0  0  0  0
   -0.5330   38.5850   22.8050 C   0  0  0  0  0  0  0  0  0  0  0  0
    0.0100   39.1680   21.7240 N   0  0  0  0  0  0  0  0  0  0  0  0
    1.3170   39.3840   21.8790 C   0  0  0  0  0  0  0  0  0  0  0  0
    2.3130   39.9470   21.0730 C   0  0  0  0  0  3  0  0  0  0  0  0
    3.6000   40.0140   21.5640 C   0  0  0  0  0  3  0  0  0  0  0  0
    3.9530   39.5530   22.8110 C   0  0  0  0  0  0  0  0  0  0  0  0
    5.2470   39.6490   23.2410 F   0  0  0  0  0  0  0  0  0  0  0  0
    2.9710   39.0000   23.6000 C   0  0  0  0  0  3  0  0  0  0  0  0
    1.6690   38.9230   23.1270 C   0  0  0  0  0  0  0  0  0  0  0  0
   -0.4950   39.4420   20.8350 H   0  0  0  0  0  0  0  0  0  0  0  0
   -2.8510   39.3330   23.2590 C   0  0  0  0  0  0  0  0  0  0  0  0
   -3.0170   40.4480   22.5860 C   0  0  0  0  0  0  0  0  0  0  0  0
   -2.3470   40.8370   21.4000 O   0  0  0  0  0  0  0  0  0  0  0  0
   -4.0360   41.3000   23.2340 C   0  0  0  0  0  3  0  0  0  0  0  0
   -4.4880   40.5830   24.3410 O   0  0  0  0  0  0  0  0  0  0  0  0
   -3.7910   39.3960   24.4000 C   0  0  0  0  0  0  0  0  0  0  0  0
   -3.9590   38.5330   25.2980 O   0  0  0  0  0  0  0  0  0  0  0  0
   -1.8570   41.7310   21.4690 H   0  0  0  0  0  0  0  0  0  0  0  0
   -5.2360   41.5330   22.3330 C   0  0  0  0  0  2  0  0  0  0  0  0
   -5.9540   42.7540   22.7800 C   0  0  0  0  0  0  0  0  0  0  0  0
   -5.4000   44.0000   22.5940 C   0  0  0  0  0  3  0  0  0  0  0  0
   -6.0430   45.1610   23.0000 C   0  0  0  0  0  3  0  0  0  0  0  0
   -7.2880   45.0750   23.6200 C   0  0  0  0  0  3  0  0  0  0  0  0
   -7.8280   43.8270   23.8000 C   0  0  0  0  0  3  0  0  0  0  0  0
   -7.1880   42.6760   23.3940 C   0  0  0  0  0  3  0  0  0  0  0  0
   -2.4340   37.3000   21.9340 C   0  0  0  0  0  0  0  0  0  0  0  0
   -1.5680   36.7420   20.9930 C   0  0  0  0  0  3  0  0  0  0  0  0
   -2.0800   35.9280   20.0070 C   0  0  0  0  0  3  0  0  0  0  0  0
   -3.4260   35.6470   19.9210 C   0  0  0  0  0  3  0  0  0  0  0  0
   -4.2980   36.2000   20.8570 C   0  0  0  0  0  3  0  0  0  0  0  0
   -3.7750   37.0010   21.8230 C   0  0  0  0  0  3  0  0  0  0  0  0
 32 31  1  0
 32 33  2  0
 31 30  2  0
 13  5  1  0
 33 34  1  0
 30 29  1  0
  7  8  2  0
  7  6  1  0
 16 21  1  0
 16 15  1  0
  8  9  1  0
  5  6  1  0
  5  4  1  0
 34 29  2  0
  6 12  2  0
 29  1  1  0
 22 23  1  0
 22 17  1  0
 15 17  1  0
 15 14  2  0
 24 23  2  0
 24 25  1  0
 23 28  1  0
  4  1  1  0
  4  3  2  0
  9 10  1  0
  9 11  2  0
 25 26  2  0
  1 14  1  0
 12 11  1  0
 12  3  1  0
 17 18  1  0
 14 19  1  0
 28 27  2  0
 26 27  1  0
  3  2  1  0
 18 19  1  0
 19 20  2  0
M  RAD  8   1   2   2   2   7   2   8   2  11   2  17   2  22   3  24   2
M  RAD  8  25   2  26   2  27   2  28   2  30   2  31   2  32   2  33   2
M  RAD  1  34   2
M  END
>  <_TriposChargeType>  (1) 
GASTEIGER

>  <SuCOS_score>  (1) 
0.3490769019494028

>  <Volume_score>  (1) 
0.4992818473096895

>  <Feature_score>  (1) 
0.1988719565891161

$$$$
