DOCK.F40.P4k2y/L1006_ligand.pdbt
     RDKit          3D

 42 46  0  0  0  0  0  0  0  0999 V2000
   -3.0810   37.9280   22.2960 C   0  0  0  0  0  3  0  0  0  0  0  0
   -0.9040   38.4390   23.6370 C   0  0  0  0  0  0  0  0  0  0  0  0
   -1.7360   38.4150   22.5090 C   0  0  0  0  0  0  0  0  0  0  0  0
   -0.9410   38.8370   21.4800 N   0  0  0  0  0  0  0  0  0  0  0  0
    0.2880   39.1040   21.8820 C   0  0  0  0  0  0  0  0  0  0  0  0
    1.3970   39.5380   21.1460 C   0  0  0  0  0  3  0  0  0  0  0  0
    2.5990   39.7350   21.7670 C   0  0  0  0  0  0  0  0  0  0  0  0
    3.8010   40.2000   20.9990 C   0  0  0  0  0  1  0  0  0  0  0  0
    2.6550   39.4890   23.1150 C   0  0  0  0  0  3  0  0  0  0  0  0
    1.5640   39.0630   23.8380 C   0  0  0  0  0  3  0  0  0  0  0  0
    0.3430   38.8600   23.2330 C   0  0  0  0  0  0  0  0  0  0  0  0
   -1.2520   38.9480   20.4680 H   0  0  0  0  0  0  0  0  0  0  0  0
   -1.3520   38.1770   24.9800 C   0  0  0  0  0  2  0  0  0  0  0  0
   -1.2710   36.7810   25.5360 C   0  0  1  0  0  0  0  0  0  0  0  0
    0.2010   36.3130   25.5830 C   0  0  0  0  0  1  0  0  0  0  0  0
   -1.8440   36.5970   26.8950 C   0  0  0  0  0  1  0  0  0  0  0  0
   -1.5900   34.0330   22.8380 C   0  0  0  0  0  1  0  0  0  0  0  0
   -1.0400   35.0520   23.7930 C   0  0  0  0  0  0  0  0  0  0  0  0
    0.2010   35.2430   23.8480 O   0  0  0  0  0  0  0  0  0  0  0  0
   -1.9330   35.8020   24.6350 N   0  0  0  0  0  0  0  0  0  0  0  0
   -2.9480   35.6580   24.6040 H   0  0  0  0  0  0  0  0  0  0  0  0
   -4.0400   39.0910   22.1880 C   0  0  0  0  0  0  0  0  0  0  0  0
   -5.1840   39.4290   22.6910 C   0  0  0  0  0  0  0  0  0  0  0  0
   -6.0500   38.8030   23.6030 O   0  0  0  0  0  0  0  0  0  0  0  0
   -5.2750   40.7070   21.9770 C   0  0  1  0  0  0  0  0  0  0  0  0
   -5.1990   41.9520   22.8070 C   0  0  0  0  0  1  0  0  0  0  0  0
   -3.9850   40.3140   21.4130 C   0  0  0  0  0  0  0  0  0  0  0  0
   -3.1660   40.8190   20.6000 O   0  0  0  0  0  0  0  0  0  0  0  0
   -6.0430   39.1800   24.5490 H   0  0  0  0  0  0  0  0  0  0  0  0
   -6.4330   40.6600   21.0300 C   0  0  0  0  0  0  0  0  0  0  0  0
   -7.1920   39.5150   20.8530 C   0  0  0  0  0  3  0  0  0  0  0  0
   -8.2630   39.4940   19.9710 C   0  0  0  0  0  3  0  0  0  0  0  0
   -8.5990   40.6170   19.2460 C   0  0  0  0  0  0  0  0  0  0  0  0
   -9.7600   40.6010   18.2860 C   0  0  0  0  0  1  0  0  0  0  0  0
   -7.8720   41.7570   19.3990 C   0  0  0  0  0  3  0  0  0  0  0  0
   -6.8110   41.7550   20.2810 C   0  0  0  0  0  3  0  0  0  0  0  0
   -3.3890   36.9230   21.3000 C   0  0  0  0  0  0  0  0  0  0  0  0
   -4.6640   36.4500   21.1850 C   0  0  0  0  0  3  0  0  0  0  0  0
   -5.0030   35.4850   20.2610 C   0  0  0  0  0  3  0  0  0  0  0  0
   -4.0570   34.9470   19.4010 C   0  0  0  0  0  3  0  0  0  0  0  0
   -2.7710   35.4080   19.5000 C   0  0  0  0  0  3  0  0  0  0  0  0
   -2.4450   36.3720   20.4250 C   0  0  0  0  0  3  0  0  0  0  0  0
 34 33  1  0
 33 35  2  0
 33 32  1  0
 35 36  1  0
 40 41  2  0
 40 39  1  0
 41 42  1  0
 32 31  2  0
 39 38  2  0
 36 30  2  0
 42 37  2  0
 12  4  1  0
 28 27  2  0
 31 30  1  0
  8  7  1  0
 30 25  1  0
  6  7  2  0
  6  5  1  0
 38 37  1  0
 37  1  1  0
 27 25  1  0
 27 22  1  0
  4  5  1  0
  4  3  1  0
  7  9  1  0
  5 11  2  0
 25 23  1  0
 25 26  1  1
 22  1  1  0
 22 23  2  0
  1  3  1  0
  3  2  2  0
 23 24  1  0
 17 18  1  0
  9 10  2  0
 11  2  1  0
 11 10  1  0
 24 29  1  0
  2 13  1  0
 18 19  2  0
 18 20  1  0
 21 20  1  0
 20 14  1  0
 13 14  1  0
 14 15  1  1
 14 16  1  0
M  RAD  8   1   2   6   2   8   2   9   2  10   2  13   3  15   2  16   2
M  RAD  8  17   2  26   2  31   2  32   2  34   2  35   2  36   2  38   2
M  RAD  4  39   2  40   2  41   2  42   2
M  END
>  <_TriposChargeType>  (1) 
GASTEIGER

>  <SuCOS_score>  (1) 
0.3002447112510192

>  <Volume_score>  (1) 
0.5101657458563535

>  <Feature_score>  (1) 
0.09032367664568489

$$$$
