DOCK.F40.P4k2y/L1016_ligand.pdbt
     RDKit          3D

 29 32  0  0  0  0  0  0  0  0999 V2000
   -2.2130   36.8360   23.1730 C   0  0  0  0  0  0  0  0  0  0  0  0
   -1.7100   38.1340   22.9850 C   0  0  0  0  0  0  0  0  0  0  0  0
   -0.6710   38.3260   23.7690 N   0  0  0  0  0  4  0  0  0  0  0  0
   -0.4930   37.1210   24.4920 C   0  0  0  0  0  0  0  0  0  0  0  0
    0.4150   36.7370   25.4360 C   0  0  0  0  0  3  0  0  0  0  0  0
    0.4000   35.4960   26.0050 C   0  0  0  0  0  3  0  0  0  0  0  0
   -0.5680   34.5920   25.6150 C   0  0  0  0  0  3  0  0  0  0  0  0
   -1.5000   34.9310   24.6710 C   0  0  0  0  0  3  0  0  0  0  0  0
   -1.4440   36.2170   24.1160 C   0  0  0  0  0  0  0  0  0  0  0  0
   -2.2990   39.0730   22.0390 C   0  0  0  0  0  0  0  0  0  0  0  0
   -2.2200   38.9510   20.8000 O   0  0  0  0  0  1  0  0  0  0  0  0
   -2.9970   40.1770   22.4990 O   0  0  0  0  0  0  0  0  0  0  0  0
   -3.3730   36.2140   22.4970 C   0  0  0  0  0  2  0  0  0  0  0  0
   -3.4680   34.5730   19.0000 C   0  0  0  0  0  1  0  0  0  0  0  0
   -3.8870   35.2290   20.2150 N   0  0  0  0  0  0  0  0  0  0  0  0
   -5.2610   35.5930   20.4000 C   0  0  0  0  0  1  0  0  0  0  0  0
   -2.9560   35.5350   21.2370 C   0  0  0  0  0  0  0  0  0  0  0  0
   -1.7380   35.2400   21.1040 O   0  0  0  0  0  0  0  0  0  0  0  0
    0.2780   39.3500   23.9770 C   0  0  0  0  0  2  0  0  0  0  0  0
    1.0960   39.8000   22.7880 C   0  0  0  0  0  0  0  0  0  0  0  0
    0.4340   40.2750   21.6850 C   0  0  0  0  0  3  0  0  0  0  0  0
    1.6780   40.5240   20.5540 S   0  0  0  0  0  0  0  0  0  0  0  0
    3.0140   40.0320   21.4850 C   0  0  0  0  0  0  0  0  0  0  0  0
    4.3940   40.0000   21.2410 C   0  0  0  0  0  3  0  0  0  0  0  0
    5.2730   39.6030   22.2180 C   0  0  0  0  0  3  0  0  0  0  0  0
    4.7170   39.2480   23.4170 C   0  0  0  0  0  0  0  0  0  0  0  0
    5.5680   38.8490   24.4000 F   0  0  0  0  0  0  0  0  0  0  0  0
    3.3770   39.2720   23.6690 C   0  0  0  0  0  3  0  0  0  0  0  0
    2.4470   39.6750   22.6800 C   0  0  0  0  0  0  0  0  0  0  0  0
 14 15  1  0
 15 16  1  0
 15 17  1  0
 22 23  1  0
 22 21  1  0
 11 10  1  0
 18 17  2  0
 17 13  1  0
 24 23  2  0
 24 25  1  0
 23 29  1  0
 21 20  2  0
 10 12  2  0
 10  2  1  0
 25 26  2  0
 13  1  1  0
 29 20  1  0
 29 28  2  0
 20 19  1  0
  2  1  2  0
  2  3  1  0
  1  9  1  0
 26 28  1  0
 26 27  1  0
  3 19  1  0
  3  4  1  0
  9  4  2  0
  9  8  1  0
  4  5  1  0
  8  7  2  0
  5  6  2  0
  7  6  1  0
M  RAD  8   5   2   6   2   7   2   8   2  13   3  14   2  16   2  19   3
M  CHG  2   3   1  11  -1
M  RAD  4  21   2  24   2  25   2  28   2
M  END
>  <_TriposChargeType>  (1) 
GASTEIGER

>  <SuCOS_score>  (1) 
0.29290601295005736

>  <Volume_score>  (1) 
0.3883602566939588

>  <Feature_score>  (1) 
0.19745176920615598

$$$$
