DOCK.F40.P4k2y/L1013_ligand.pdbt
     RDKit          3D

 27 30  0  0  0  0  0  0  0  0999 V2000
   -4.5350   38.9150   21.9200 N   0  0  0  0  0  4  0  0  0  0  0  0
   -3.6090   39.8660   22.2330 C   0  0  0  0  0  0  0  0  0  0  0  0
   -2.3400   39.4370   21.9190 C   0  0  0  0  0  0  0  0  0  0  0  0
   -2.5480   38.1450   21.3830 C   0  0  0  0  0  0  0  0  0  0  0  0
   -1.6780   37.2110   20.8640 C   0  0  0  0  0  3  0  0  0  0  0  0
   -2.1400   36.0070   20.3690 C   0  0  0  0  0  3  0  0  0  0  0  0
   -3.4840   35.7330   20.3920 C   0  0  0  0  0  3  0  0  0  0  0  0
   -4.3660   36.6510   20.9040 C   0  0  0  0  0  3  0  0  0  0  0  0
   -3.8750   37.8730   21.4010 C   0  0  0  0  0  0  0  0  0  0  0  0
   -4.0130   41.1550   22.7960 C   0  0  0  0  0  0  0  0  0  0  0  0
   -3.7990   42.1970   22.0780 O   0  0  0  0  0  1  0  0  0  0  0  0
   -4.5990   41.3400   24.0280 O   0  0  0  0  0  0  0  0  0  0  0  0
   -5.9840   38.9430   22.0900 C   0  0  0  0  0  2  0  0  0  0  0  0
   -6.6750   39.3280   20.8060 C   0  0  0  0  0  2  0  0  0  0  0  0
   -7.5990   41.0030   19.4930 C   0  0  0  0  0  1  0  0  0  0  0  0
   -6.9690   40.6590   20.6830 O   0  0  0  0  0  0  0  0  0  0  0  0
   -1.0380   40.1130   21.9990 C   0  0  0  0  0  2  0  0  0  0  0  0
    0.0640   39.6030   22.7440 C   0  0  0  0  0  0  0  0  0  0  0  0
   -0.1330   38.9770   23.9930 C   0  0  0  0  0  3  0  0  0  0  0  0
    0.8650   38.5210   24.7900 C   0  0  0  0  0  3  0  0  0  0  0  0
    2.1660   38.6510   24.4040 C   0  0  0  0  0  3  0  0  0  0  0  0
    2.4340   39.2510   23.2020 C   0  0  0  0  0  0  0  0  0  0  0  0
    3.7550   39.4000   22.7990 C   0  0  0  0  0  3  0  0  0  0  0  0
    4.0880   40.0040   21.5990 C   0  0  0  0  0  3  0  0  0  0  0  0
    3.0730   40.4550   20.8170 C   0  0  0  0  0  3  0  0  0  0  0  0
    1.7760   40.3020   21.2270 C   0  0  0  0  0  3  0  0  0  0  0  0
    1.3860   39.7120   22.4010 C   0  0  0  0  0  0  0  0  0  0  0  0
 15 16  1  0
  6  7  2  0
  6  5  1  0
  7  8  1  0
 16 14  1  0
 14 13  1  0
 25 26  1  0
 25 24  2  0
  5  4  2  0
  8  9  2  0
 26 27  2  0
  4  9  1  0
  4  3  1  0
  9  1  1  0
 24 23  1  0
  3 17  1  0
  3  2  2  0
  1 13  1  0
  1  2  1  0
 17 18  1  0
 11 10  1  0
  2 10  1  0
 27 18  1  0
 27 22  1  0
 18 19  2  0
 10 12  2  0
 23 22  2  0
 22 21  1  0
 19 20  1  0
 21 20  2  0
M  RAD  8   5   2   6   2   7   2   8   2  13   3  14   3  15   2  17   3
M  CHG  2   1   1  11  -1
M  RAD  7  19   2  20   2  21   2  23   2  24   2  25   2  26   2
M  END
>  <_TriposChargeType>  (1) 
GASTEIGER

>  <SuCOS_score>  (1) 
0.38479340279891594

>  <Volume_score>  (1) 
0.5174013921113689

>  <Feature_score>  (1) 
0.25218541348646295

$$$$
