DOCK.F36.P4k5z/L1005_ligand.pdbt
     RDKit          3D

 31 34  0  0  0  0  0  0  0  0999 V2000
   -4.1410   38.7700   21.3990 C   0  0  0  0  0  0  0  0  0  0  0  0
   -3.0270   39.6310   21.5100 C   0  0  0  0  0  0  0  0  0  0  0  0
   -1.9140   38.9710   21.2230 N   0  0  0  0  0  4  0  0  0  0  0  0
   -2.2630   37.6600   20.9220 C   0  0  0  0  0  0  0  0  0  0  0  0
   -1.4200   36.6190   20.5980 C   0  0  0  0  0  3  0  0  0  0  0  0
   -2.0040   35.3650   20.3710 C   0  0  0  0  0  3  0  0  0  0  0  0
   -3.3650   35.2180   20.4760 C   0  0  0  0  0  0  0  0  0  0  0  0
   -3.9560   33.9940   20.2540 F   0  0  0  0  0  0  0  0  0  0  0  0
   -4.1730   36.2940   20.8040 C   0  0  0  0  0  3  0  0  0  0  0  0
   -3.6340   37.5490   21.0340 C   0  0  0  0  0  0  0  0  0  0  0  0
   -3.2030   41.0240   21.9230 C   0  0  0  0  0  0  0  0  0  0  0  0
   -2.8000   42.0000   21.2000 O   0  0  0  0  0  1  0  0  0  0  0  0
   -3.8040   41.4170   23.0960 O   0  0  0  0  0  0  0  0  0  0  0  0
   -5.5250   39.1710   21.6670 C   0  0  0  0  0  2  0  0  0  0  0  0
   -7.1890   40.2370   20.1050 C   0  0  0  0  0  0  0  0  0  0  0  0
   -7.7480   39.1100   19.9320 O   0  0  0  0  0  0  0  0  0  0  0  0
   -6.0670   40.2830   20.9750 N   0  0  0  0  0  0  0  0  0  0  0  0
   -5.6380   41.2610   21.0850 H   0  0  0  0  0  0  0  0  0  0  0  0
   -8.7920   41.3340   18.6000 C   0  0  0  0  0  1  0  0  0  0  0  0
   -7.6740   41.3700   19.4570 O   0  0  0  0  0  0  0  0  0  0  0  0
   -0.5370   39.4330   21.2500 C   0  0  0  0  0  2  0  0  0  0  0  0
    0.1000   39.1340   22.5170 C   0  0  0  0  0  0  0  0  0  0  0  0
   -0.6300   38.6000   23.5690 C   0  0  0  0  0  3  0  0  0  0  0  0
   -0.0940   38.1880   24.7680 C   0  0  0  0  0  3  0  0  0  0  0  0
    1.2710   38.3260   24.9090 C   0  0  0  0  0  3  0  0  0  0  0  0
    2.0370   38.8450   23.9150 C   0  0  0  0  0  0  0  0  0  0  0  0
    3.3760   39.0000   24.1430 C   0  0  0  0  0  3  0  0  0  0  0  0
    4.2020   39.5720   23.1820 C   0  0  0  0  0  3  0  0  0  0  0  0
    3.6240   39.9810   21.9850 C   0  0  0  0  0  3  0  0  0  0  0  0
    2.2750   39.8270   21.7480 C   0  0  0  0  0  3  0  0  0  0  0  0
    1.4620   39.2590   22.6980 C   0  0  0  0  0  0  0  0  0  0  0  0
 19 20  1  0
 20 15  1  0
 16 15  2  0
 15 17  1  0
  8  7  1  0
  6  7  2  0
  6  5  1  0
  7  9  1  0
  5  4  2  0
  9 10  2  0
  4 10  1  0
  4  3  1  0
 17 18  1  0
 17 14  1  0
 10  1  1  0
 12 11  1  0
  3 21  1  0
  3  2  1  0
 21 22  1  0
  1  2  2  0
  1 14  1  0
  2 11  1  0
 30 29  1  0
 30 31  2  0
 11 13  2  0
 29 28  2  0
 22 31  1  0
 22 23  2  0
 31 26  1  0
 28 27  1  0
 23 24  1  0
 26 27  2  0
 26 25  1  0
 24 25  2  0
M  RAD  8   5   2   6   2   9   2  14   3  19   2  21   3  23   2  24   2
M  CHG  2   3   1  12  -1
M  RAD  5  25   2  27   2  28   2  29   2  30   2
M  END
>  <_TriposChargeType>  (1) 
GASTEIGER

>  <SuCOS_score>  (1) 
0.3452448278308939

>  <Volume_score>  (1) 
0.5003866976024749

>  <Feature_score>  (1) 
0.19010295805931288

$$$$
