DOCK.F36.P4k5z/L1008_ligand.pdbt
     RDKit          3D

 32 36  0  0  0  0  0  0  0  0999 V2000
   -1.7150   38.0100   22.9750 C   0  0  0  0  0  3  0  0  0  0  0  0
    5.5680   39.4270   24.2010 C   0  0  0  0  0  1  0  0  0  0  0  0
    4.3080   39.3990   23.3950 C   0  0  0  0  0  0  0  0  0  0  0  0
    4.3410   39.8800   22.1060 C   0  0  0  0  0  3  0  0  0  0  0  0
    3.1590   39.8400   21.3870 C   0  0  0  0  0  3  0  0  0  0  0  0
    1.9960   39.3340   21.9590 C   0  0  0  0  0  0  0  0  0  0  0  0
    0.3980   39.1300   21.4000 S   0  0  0  0  0  0  0  0  0  0  0  0
   -0.3050   38.4420   22.7890 C   0  0  0  0  0  0  0  0  0  0  0  0
    0.7490   38.3900   23.6670 C   0  0  0  0  0  0  0  0  0  0  0  0
    0.5030   37.8170   25.0620 C   0  0  0  0  0  1  0  0  0  0  0  0
    1.9370   38.8500   23.2390 C   0  0  0  0  0  0  0  0  0  0  0  0
    3.1560   38.9060   23.9360 C   0  0  0  0  0  3  0  0  0  0  0  0
   -2.6990   39.0780   22.6490 C   0  0  0  0  0  0  0  0  0  0  0  0
   -2.7150   40.2610   22.1240 C   0  0  0  0  0  0  0  0  0  0  0  0
   -1.7100   41.0920   21.6000 O   0  0  0  0  0  0  0  0  0  0  0  0
   -4.1430   40.4330   22.2650 C   0  0  1  0  0  0  0  0  0  0  0  0
   -4.9510   40.4190   20.9810 C   0  0  0  0  0  1  0  0  0  0  0  0
   -4.1220   39.1110   22.8540 C   0  0  0  0  0  0  0  0  0  0  0  0
   -5.0150   38.3290   23.3430 O   0  0  0  0  0  0  0  0  0  0  0  0
   -1.5950   41.0780   20.5950 H   0  0  0  0  0  0  0  0  0  0  0  0
   -4.5870   41.4560   23.2400 C   0  0  0  0  0  0  0  0  0  0  0  0
   -5.0000   41.1380   24.5110 C   0  0  0  0  0  3  0  0  0  0  0  0
   -5.4160   42.1010   25.4170 C   0  0  0  0  0  3  0  0  0  0  0  0
   -5.4180   43.4140   25.0440 C   0  0  0  0  0  3  0  0  0  0  0  0
   -5.0050   43.7480   23.7720 C   0  0  0  0  0  3  0  0  0  0  0  0
   -4.5900   42.7800   22.8670 C   0  0  0  0  0  3  0  0  0  0  0  0
   -1.9590   36.8810   22.0360 C   0  0  0  0  0  0  0  0  0  0  0  0
   -2.5740   37.0660   20.8160 C   0  0  0  0  0  3  0  0  0  0  0  0
   -2.7720   35.9990   20.0010 C   0  0  0  0  0  3  0  0  0  0  0  0
   -2.3790   34.7500   20.3580 C   0  0  0  0  0  3  0  0  0  0  0  0
   -1.7570   34.5690   21.5960 C   0  0  0  0  0  3  0  0  0  0  0  0
   -1.5410   35.6280   22.4460 C   0  0  0  0  0  3  0  0  0  0  0  0
 29 30  1  0
 29 28  2  0
 30 31  2  0
 20 15  1  0
 28 27  1  0
 16 17  1  6
  5  6  2  0
  5  4  1  0
  7  6  1  0
  7  8  1  0
 31 32  1  0
 15 14  1  0
  6 11  1  0
 27 32  2  0
 27  1  1  0
  4  3  2  0
 14 16  1  0
 14 13  2  0
 16 18  1  0
 16 21  1  0
 13 18  1  0
 13  1  1  0
  8  1  1  0
  8  9  2  0
 18 19  2  0
 26 21  1  0
 26 25  2  0
 11  9  1  0
 11 12  2  0
 21 22  2  0
  3 12  1  0
  3  2  1  0
  9 10  1  0
 25 24  1  0
 22 23  1  0
 24 23  2  0
M  RAD  8   1   2   2   2   4   2   5   2  10   2  12   2  17   2  22   2
M  RAD  8  23   2  24   2  25   2  26   2  28   2  29   2  30   2  31   2
M  RAD  1  32   2
M  END
>  <_TriposChargeType>  (1) 
GASTEIGER

>  <SuCOS_score>  (1) 
0.37252071970820433

>  <Volume_score>  (1) 
0.52259418848746

>  <Feature_score>  (1) 
0.22244725092894863

$$$$
