DOCK.F36.P4k5z/L1011_ligand.pdbt
     RDKit          3D

 30 33  0  0  0  0  0  0  0  0999 V2000
   -2.0370   37.3930   21.3180 C   0  0  0  0  0  0  0  0  0  0  0  0
   -3.0530   37.7510   22.1970 C   0  0  0  0  0  0  0  0  0  0  0  0
   -4.1450   36.9750   21.9100 N   0  0  0  0  0  4  0  0  0  0  0  0
   -3.8560   36.1430   20.8920 C   0  0  0  0  0  0  0  0  0  0  0  0
   -4.5650   35.1630   20.2190 C   0  0  0  0  0  3  0  0  0  0  0  0
   -4.0220   34.4270   19.1850 C   0  0  0  0  0  3  0  0  0  0  0  0
   -2.7140   34.7050   18.8330 C   0  0  0  0  0  0  0  0  0  0  0  0
   -2.1720   33.9920   17.8160 F   0  0  0  0  0  0  0  0  0  0  0  0
   -2.0000   35.6710   19.4890 C   0  0  0  0  0  3  0  0  0  0  0  0
   -2.5610   36.3950   20.5210 C   0  0  0  0  0  0  0  0  0  0  0  0
   -2.8660   38.7420   23.2390 C   0  0  0  0  0  0  0  0  0  0  0  0
   -2.6820   38.3890   24.4480 O   0  0  0  0  0  1  0  0  0  0  0  0
   -2.8780   40.1060   22.9990 O   0  0  0  0  0  0  0  0  0  0  0  0
   -0.6530   37.9220   21.2430 C   0  0  0  0  0  2  0  0  0  0  0  0
    1.5640   38.0430   24.3990 C   0  0  0  0  0  1  0  0  0  0  0  0
    0.8200   38.5300   23.2430 N   0  0  0  0  0  0  0  0  0  0  0  0
    0.8460   39.9390   22.9990 C   0  0  0  0  0  1  0  0  0  0  0  0
    0.1270   37.6000   22.4470 C   0  0  0  0  0  0  0  0  0  0  0  0
    0.1620   36.3660   22.7760 O   0  0  0  0  0  0  0  0  0  0  0  0
   -5.4070   37.1280   22.5990 C   0  0  0  0  0  2  0  0  0  0  0  0
   -6.4690   37.4820   21.6240 C   0  0  0  0  0  0  0  0  0  0  0  0
   -7.4440   36.5430   21.2990 C   0  0  0  0  0  3  0  0  0  0  0  0
   -8.5170   36.8810   20.4860 C   0  0  0  0  0  3  0  0  0  0  0  0
   -8.6130   38.1570   19.9990 C   0  0  0  0  0  3  0  0  0  0  0  0
   -7.6820   39.1240   20.2830 C   0  0  0  0  0  0  0  0  0  0  0  0
   -7.8040   40.4000   19.7200 C   0  0  0  0  0  3  0  0  0  0  0  0
   -6.8150   41.3190   19.9960 C   0  0  0  0  0  3  0  0  0  0  0  0
   -5.7390   41.0340   20.7860 C   0  0  0  0  0  3  0  0  0  0  0  0
   -5.6640   39.7360   21.3290 C   0  0  0  0  0  3  0  0  0  0  0  0
   -6.6130   38.7720   21.0980 C   0  0  0  0  0  0  0  0  0  0  0  0
  8  7  1  0
  7  6  2  0
  7  9  1  0
  6  5  1  0
  9 10  2  0
 26 27  2  0
 26 25  1  0
 27 28  1  0
 24 25  2  0
 24 23  1  0
  5  4  2  0
 25 30  1  0
 23 22  2  0
 10  4  1  0
 10  1  1  0
 28 29  2  0
  4  3  1  0
 30 29  1  0
 30 21  2  0
 14  1  1  0
 14 18  1  0
 22 21  1  0
  1  2  2  0
 21 20  1  0
  3  2  1  0
  3 20  1  0
  2 11  1  0
 18 19  2  0
 18 16  1  0
 17 16  1  0
 13 11  2  0
 11 12  1  0
 16 15  1  0
M  RAD  8   5   2   6   2   9   2  14   3  15   2  17   2  20   3  22   2
M  CHG  2   3   1  12  -1
M  RAD  6  23   2  24   2  26   2  27   2  28   2  29   2
M  END
>  <_TriposChargeType>  (1) 
GASTEIGER

>  <SuCOS_score>  (1) 
0.21868143781039517

>  <Volume_score>  (1) 
0.42625124295657935

>  <Feature_score>  (1) 
0.01111163266421102

$$$$
