DOCK.F10.P5yjp/L1006_ligand.pdbt
     RDKit          3D

 42 46  0  0  0  0  0  0  0  0999 V2000
   -2.5860   38.3760   22.2730 C   0  0  0  0  0  3  0  0  0  0  0  0
   -0.3990   38.9120   23.5890 C   0  0  0  0  0  0  0  0  0  0  0  0
   -1.2210   38.8190   22.4570 C   0  0  0  0  0  0  0  0  0  0  0  0
   -0.3980   39.1030   21.4040 N   0  0  0  0  0  0  0  0  0  0  0  0
    0.8390   39.3500   21.7940 C   0  0  0  0  0  0  0  0  0  0  0  0
    1.9740   39.6600   21.0350 C   0  0  0  0  0  3  0  0  0  0  0  0
    3.1780   39.8590   21.6510 C   0  0  0  0  0  0  0  0  0  0  0  0
    4.4080   40.1920   20.8590 C   0  0  0  0  0  1  0  0  0  0  0  0
    3.2100   39.7400   23.0170 C   0  0  0  0  0  3  0  0  0  0  0  0
    2.0940   39.4360   23.7630 C   0  0  0  0  0  3  0  0  0  0  0  0
    0.8710   39.2340   23.1630 C   0  0  0  0  0  0  0  0  0  0  0  0
   -0.6940   39.1310   20.3820 H   0  0  0  0  0  0  0  0  0  0  0  0
   -0.8710   38.8000   24.9450 C   0  0  0  0  0  2  0  0  0  0  0  0
   -0.4850   37.6050   25.7740 C   0  0  1  0  0  0  0  0  0  0  0  0
    0.6000   38.0000   26.8020 C   0  0  0  0  0  1  0  0  0  0  0  0
   -1.5960   36.9580   26.5210 C   0  0  0  0  0  1  0  0  0  0  0  0
   -0.2010   34.5700   23.4000 C   0  0  0  0  0  1  0  0  0  0  0  0
   -0.7400   35.6700   24.2670 C   0  0  0  0  0  0  0  0  0  0  0  0
   -1.9830   35.8060   24.3940 O   0  0  0  0  0  0  0  0  0  0  0  0
    0.1660   36.5590   24.9450 N   0  0  0  0  0  0  0  0  0  0  0  0
    1.1830   36.4630   24.8500 H   0  0  0  0  0  0  0  0  0  0  0  0
   -3.4850   39.5660   22.0290 C   0  0  0  0  0  0  0  0  0  0  0  0
   -3.3460   40.8090   21.6920 C   0  0  0  0  0  0  0  0  0  0  0  0
   -2.2230   41.6000   21.4000 O   0  0  0  0  0  0  0  0  0  0  0  0
   -4.7790   41.1190   21.7200 C   0  0  1  0  0  0  0  0  0  0  0  0
   -5.4260   41.4400   20.4070 C   0  0  0  0  0  1  0  0  0  0  0  0
   -4.9250   39.7150   22.1020 C   0  0  0  0  0  0  0  0  0  0  0  0
   -5.8880   38.9520   22.3770 O   0  0  0  0  0  0  0  0  0  0  0  0
   -2.0640   41.7930   20.4130 H   0  0  0  0  0  0  0  0  0  0  0  0
   -5.0460   42.1130   22.8060 C   0  0  0  0  0  0  0  0  0  0  0  0
   -5.1540   41.7390   24.1350 C   0  0  0  0  0  3  0  0  0  0  0  0
   -5.4000   42.6770   25.1270 C   0  0  0  0  0  3  0  0  0  0  0  0
   -5.5460   44.0110   24.8120 C   0  0  0  0  0  0  0  0  0  0  0  0
   -5.8150   45.0350   25.8830 C   0  0  0  0  0  1  0  0  0  0  0  0
   -5.4460   44.4090   23.5150 C   0  0  0  0  0  3  0  0  0  0  0  0
   -5.2000   43.4590   22.5450 C   0  0  0  0  0  3  0  0  0  0  0  0
   -2.9310   37.2890   21.3810 C   0  0  0  0  0  0  0  0  0  0  0  0
   -2.0000   36.8050   20.5100 C   0  0  0  0  0  3  0  0  0  0  0  0
   -2.2850   35.7810   19.6320 C   0  0  0  0  0  3  0  0  0  0  0  0
   -3.5400   35.1930   19.5950 C   0  0  0  0  0  3  0  0  0  0  0  0
   -4.4900   35.6630   20.4620 C   0  0  0  0  0  3  0  0  0  0  0  0
   -4.1940   36.6850   21.3340 C   0  0  0  0  0  3  0  0  0  0  0  0
 40 39  1  0
 40 41  2  0
 39 38  2  0
 12  4  1  0
 25 26  1  6
 29 24  1  0
 41 42  1  0
 38 37  1  0
  8  7  1  0
  6  7  2  0
  6  5  1  0
 42 37  2  0
 37  1  1  0
 24 23  1  0
  4  5  1  0
  4  3  1  0
  7  9  1  0
 23 25  1  0
 23 22  2  0
 25 27  1  0
 25 30  1  0
  5 11  2  0
 22 27  1  0
 22  1  1  0
 27 28  2  0
  1  3  1  0
  3  2  2  0
 36 30  1  0
 36 35  2  0
 30 31  2  0
  9 10  2  0
 11  2  1  0
 11 10  1  0
 17 18  1  0
 35 33  1  0
  2 13  1  0
 31 32  1  0
 18 19  2  0
 18 20  1  0
 33 32  2  0
 33 34  1  0
 21 20  1  0
 13 14  1  0
 20 14  1  0
 14 16  1  1
 14 15  1  0
M  RAD  8   1   2   6   2   8   2   9   2  10   2  13   3  15   2  16   2
M  RAD  8  17   2  26   2  31   2  32   2  34   2  35   2  36   2  38   2
M  RAD  4  39   2  40   2  41   2  42   2
M  END
>  <_TriposChargeType>  (1) 
GASTEIGER

>  <SuCOS_score>  (1) 
0.459586658158358

>  <Volume_score>  (1) 
0.6467457589533208

>  <Feature_score>  (1) 
0.2724275573633952

$$$$
