DOCK.F10.P5yjp/L1007_ligand.pdbt
     RDKit          3D

 31 35  0  0  0  0  0  0  0  0999 V2000
   -1.4910   38.8540   21.2400 C   0  0  0  0  0  3  0  0  0  0  0  0
   -1.5050   37.4010   21.3770 C   0  0  0  0  0  0  0  0  0  0  0  0
   -2.2210   36.6870   20.4000 C   0  0  0  0  0  3  0  0  0  0  0  0
   -2.3270   35.3210   20.3960 C   0  0  0  0  0  3  0  0  0  0  0  0
   -1.7040   34.6040   21.3930 C   0  0  0  0  0  0  0  0  0  0  0  0
   -1.8010   33.2150   21.4040 C   0  0  0  0  0  3  0  0  0  0  0  0
   -1.1800   32.5060   22.4000 C   0  0  0  0  0  3  0  0  0  0  0  0
   -0.4780   33.2030   23.3570 C   0  0  0  0  0  3  0  0  0  0  0  0
   -0.3790   34.5690   23.3520 C   0  0  0  0  0  3  0  0  0  0  0  0
   -1.0000   35.3080   22.3530 C   0  0  0  0  0  0  0  0  0  0  0  0
   -0.8960   36.6820   22.3540 C   0  0  0  0  0  3  0  0  0  0  0  0
   -4.5180   41.0010   23.7680 C   0  0  0  0  0  1  0  0  0  0  0  0
   -4.3760   40.5620   22.3020 C   0  0  2  0  0  0  0  0  0  0  0  0
   -4.0200   39.1720   22.1950 C   0  0  0  0  0  0  0  0  0  0  0  0
   -4.6150   38.1050   22.4400 O   0  0  0  0  0  0  0  0  0  0  0  0
   -2.7300   39.5530   21.7020 C   0  0  0  0  0  0  0  0  0  0  0  0
   -3.0530   40.8230   21.8000 C   0  0  0  0  0  0  0  0  0  0  0  0
   -2.3820   42.0260   21.5250 O   0  0  0  0  0  0  0  0  0  0  0  0
   -1.5880   42.2430   22.1180 H   0  0  0  0  0  0  0  0  0  0  0  0
   -5.5120   41.0410   21.4800 C   0  0  0  0  0  0  0  0  0  0  0  0
   -5.9550   40.2350   20.4570 C   0  0  0  0  0  3  0  0  0  0  0  0
   -7.0080   40.6000   19.6380 C   0  0  0  0  0  3  0  0  0  0  0  0
   -7.6470   41.7990   19.8310 C   0  0  0  0  0  3  0  0  0  0  0  0
   -7.2000   42.6050   20.8580 C   0  0  0  0  0  3  0  0  0  0  0  0
   -6.1450   42.2310   21.6710 C   0  0  0  0  0  3  0  0  0  0  0  0
   -0.2480   39.3980   21.8120 C   0  0  0  0  0  0  0  0  0  0  0  0
    0.8680   39.6030   21.0310 C   0  0  0  0  0  3  0  0  0  0  0  0
    2.0480   40.0930   21.5250 C   0  0  0  0  0  3  0  0  0  0  0  0
    2.1370   40.4000   22.8590 C   0  0  0  0  0  3  0  0  0  0  0  0
    1.0270   40.2000   23.6540 C   0  0  0  0  0  3  0  0  0  0  0  0
   -0.1680   39.7040   23.1590 C   0  0  0  0  0  3  0  0  0  0  0  0
 22 23  1  0
 22 21  2  0
 23 24  2  0
  4  3  2  0
  4  5  1  0
  3  2  1  0
 21 20  1  0
 24 25  1  0
 27 28  2  0
 27 26  1  0
  1  2  1  0
  1 16  1  0
  1 26  1  0
  2 11  2  0
  5  6  2  0
  5 10  1  0
  6  7  1  0
 20 25  2  0
 20 13  1  0
 28 29  1  0
 18 17  1  0
 18 19  1  0
 16 17  2  0
 16 14  1  0
 17 13  1  0
 26 31  2  0
 14 13  1  0
 14 15  2  0
 13 12  1  1
 10 11  1  0
 10  9  2  0
  7  8  2  0
 29 30  2  0
 31 30  1  0
  9  8  1  0
M  RAD  8   1   2   3   2   4   2   6   2   7   2   8   2   9   2  11   2
M  RAD  8  12   2  21   2  22   2  23   2  24   2  25   2  27   2  28   2
M  RAD  3  29   2  30   2  31   2
M  END
>  <_TriposChargeType>  (1) 
GASTEIGER

>  <SuCOS_score>  (1) 
0.27028140856181804

>  <Volume_score>  (1) 
0.4582087899922507

>  <Feature_score>  (1) 
0.08235402713138541

$$$$
