DOCK.F10.P5yjp/L1017_ligand.pdbt
     RDKit          3D

 31 34  0  0  0  0  0  0  0  0999 V2000
   -4.2070   39.2450   21.5690 C   0  0  0  0  0  0  0  0  0  0  0  0
   -3.1820   40.1290   21.8070 C   0  0  0  0  0  0  0  0  0  0  0  0
   -1.9920   39.5480   21.7090 N   0  0  0  0  0  4  0  0  0  0  0  0
   -2.1970   38.2650   21.4080 C   0  0  0  0  0  0  0  0  0  0  0  0
   -1.3720   37.1640   21.1920 C   0  0  0  0  0  3  0  0  0  0  0  0
   -1.8000   35.9040   20.8950 C   0  0  0  0  0  3  0  0  0  0  0  0
   -3.1800   35.6820   20.7990 C   0  0  0  0  0  0  0  0  0  0  0  0
   -3.6420   34.4550   20.5330 F   0  0  0  0  0  0  0  0  0  0  0  0
   -4.0320   36.7520   21.0000 C   0  0  0  0  0  3  0  0  0  0  0  0
   -3.5830   38.0200   21.2980 C   0  0  0  0  0  0  0  0  0  0  0  0
   -3.4670   41.5800   22.0760 C   0  0  0  0  0  0  0  0  0  0  0  0
   -4.0000   41.8810   23.1620 O   0  0  0  0  0  1  0  0  0  0  0  0
   -3.2000   42.6000   21.2010 O   0  0  0  0  0  0  0  0  0  0  0  0
   -5.6200   39.3760   21.8840 C   0  0  0  0  0  2  0  0  0  0  0  0
   -6.6130   39.2790   20.8770 N   0  0  0  0  0  0  0  0  0  0  0  0
   -7.5240   38.9000   21.0210 H   0  0  0  0  0  0  0  0  0  0  0  0
   -8.1590   41.0140   19.2080 C   0  0  0  0  0  1  0  0  0  0  0  0
   -6.6770   40.8780   20.1630 S   0  0  2  0  0  6  0  0  0  0  0  0
   -5.4790   41.2000   19.4000 O   0  0  0  0  0  0  0  0  0  0  0  0
   -6.8090   41.8870   21.3330 O   0  0  0  0  0  0  0  0  0  0  0  0
   -0.7130   40.2080   21.7540 C   0  0  0  0  0  2  0  0  0  0  0  0
    0.1760   39.6950   22.8000 C   0  0  0  0  0  0  0  0  0  0  0  0
   -0.2470   39.2800   24.0110 C   0  0  0  0  0  3  0  0  0  0  0  0
    0.6210   38.8360   24.9750 C   0  0  0  0  0  3  0  0  0  0  0  0
    1.9820   38.8000   24.7310 C   0  0  0  0  0  3  0  0  0  0  0  0
    2.4220   39.2360   23.4680 C   0  0  0  0  0  0  0  0  0  0  0  0
    3.7750   39.2000   23.2060 C   0  0  0  0  0  3  0  0  0  0  0  0
    4.2350   39.6100   21.9790 C   0  0  0  0  0  3  0  0  0  0  0  0
    3.3830   40.0520   21.0040 C   0  0  0  0  0  3  0  0  0  0  0  0
    2.0610   40.0680   21.2910 C   0  0  0  0  0  3  0  0  0  0  0  0
    1.5270   39.6650   22.5430 C   0  0  0  0  0  0  0  0  0  0  0  0
 18 17  1  6
 19 18  2  0
 18 15  1  0
 18 20  2  0
  8  7  1  0
  7  6  2  0
  7  9  1  0
 15 16  1  0
 15 14  1  0
  6  5  1  0
  9 10  2  0
 29 30  1  0
 29 28  2  0
  5  4  2  0
 13 11  2  0
 30 31  2  0
 10  4  1  0
 10  1  1  0
  4  3  1  0
  1  2  2  0
  1 14  1  0
  3 21  1  0
  3  2  1  0
 21 22  1  0
  2 11  1  0
 28 27  1  0
 11 12  1  0
 31 22  1  0
 31 26  1  0
 22 23  2  0
 27 26  2  0
 26 25  1  0
 23 24  1  0
 25 24  2  0
M  RAD  8   5   2   6   2   9   2  14   3  17   2  21   3  23   2  24   2
M  CHG  2   3   1  12  -1
M  RAD  5  25   2  27   2  28   2  29   2  30   2
M  END
>  <_TriposChargeType>  (1) 
GASTEIGER

>  <SuCOS_score>  (1) 
0.3697297726661666

>  <Volume_score>  (1) 
0.5436968290796598

>  <Feature_score>  (1) 
0.19576271625267333

$$$$
