DOCK.F10.P5yjp/L1013_ligand.pdbt
     RDKit          3D

 27 30  0  0  0  0  0  0  0  0999 V2000
   -4.3920   39.6920   21.5100 N   0  0  0  0  0  4  0  0  0  0  0  0
   -3.4180   40.5990   21.8080 C   0  0  0  0  0  0  0  0  0  0  0  0
   -2.1880   39.9880   21.8950 C   0  0  0  0  0  0  0  0  0  0  0  0
   -2.4730   38.6290   21.6250 C   0  0  0  0  0  0  0  0  0  0  0  0
   -1.6630   37.5170   21.5380 C   0  0  0  0  0  3  0  0  0  0  0  0
   -2.1880   36.2770   21.2300 C   0  0  0  0  0  3  0  0  0  0  0  0
   -3.5350   36.1460   21.0060 C   0  0  0  0  0  3  0  0  0  0  0  0
   -4.3570   37.2420   21.0870 C   0  0  0  0  0  3  0  0  0  0  0  0
   -3.8020   38.4970   21.4000 C   0  0  0  0  0  0  0  0  0  0  0  0
   -3.7320   42.0200   21.9640 C   0  0  0  0  0  0  0  0  0  0  0  0
   -3.4000   42.8000   21.0000 O   0  0  0  0  0  1  0  0  0  0  0  0
   -4.3510   42.5860   23.0560 O   0  0  0  0  0  0  0  0  0  0  0  0
   -5.8250   39.8990   21.3350 C   0  0  0  0  0  2  0  0  0  0  0  0
   -6.1190   40.6000   20.0320 C   0  0  0  0  0  2  0  0  0  0  0  0
   -8.2000   41.2000   19.2000 C   0  0  0  0  0  1  0  0  0  0  0  0
   -7.1590   41.4890   20.0730 O   0  0  0  0  0  0  0  0  0  0  0  0
   -0.8440   40.5360   22.1180 C   0  0  0  0  0  2  0  0  0  0  0  0
    0.1360   39.9000   22.9340 C   0  0  0  0  0  0  0  0  0  0  0  0
   -0.2180   39.3200   24.1700 C   0  0  0  0  0  3  0  0  0  0  0  0
    0.6620   38.7510   25.0320 C   0  0  0  0  0  3  0  0  0  0  0  0
    1.9910   38.7110   24.7290 C   0  0  0  0  0  3  0  0  0  0  0  0
    2.4080   39.2560   23.5440 C   0  0  0  0  0  0  0  0  0  0  0  0
    3.7600   39.2320   23.2250 C   0  0  0  0  0  3  0  0  0  0  0  0
    4.2420   39.7740   22.0470 C   0  0  0  0  0  3  0  0  0  0  0  0
    3.3440   40.3390   21.2000 C   0  0  0  0  0  3  0  0  0  0  0  0
    2.0140   40.3570   21.5270 C   0  0  0  0  0  3  0  0  0  0  0  0
    1.4790   39.8360   22.6760 C   0  0  0  0  0  0  0  0  0  0  0  0
 15 16  1  0
 14 16  1  0
 14 13  1  0
 11 10  1  0
  7  8  1  0
  7  6  2  0
  8  9  2  0
 25 26  1  0
 25 24  2  0
  6  5  1  0
 13  1  1  0
  9  1  1  0
  9  4  1  0
  1  2  1  0
 26 27  2  0
  5  4  2  0
  4  3  1  0
  2  3  2  0
  2 10  1  0
  3 17  1  0
 10 12  2  0
 24 23  1  0
 17 18  1  0
 27 18  1  0
 27 22  1  0
 18 19  2  0
 23 22  2  0
 22 21  1  0
 19 20  1  0
 21 20  2  0
M  RAD  8   5   2   6   2   7   2   8   2  13   3  14   3  15   2  17   3
M  CHG  2   1   1  11  -1
M  RAD  7  19   2  20   2  21   2  23   2  24   2  25   2  26   2
M  END
>  <_TriposChargeType>  (1) 
GASTEIGER

>  <SuCOS_score>  (1) 
0.40480400883016887

>  <Volume_score>  (1) 
0.5123190807645563

>  <Feature_score>  (1) 
0.29728893689578134

$$$$
