DOCK.F10.P5yjp/L1014_ligand.pdbt
     RDKit          3D

 24 27  0  0  0  0  0  0  0  0999 V2000
   -0.5920   40.1650   21.5990 C   0  0  0  0  0  2  0  0  0  0  0  0
    1.8020   40.7950   20.9210 C   0  0  0  0  0  1  0  0  0  0  0  0
    2.2490   40.0470   22.0810 C   0  0  0  0  0  0  0  0  0  0  0  0
    3.6200   39.8630   22.3530 C   0  0  0  0  0  3  0  0  0  0  0  0
    4.0920   39.2560   23.4800 C   0  0  0  0  0  3  0  0  0  0  0  0
    3.1960   38.8000   24.4000 C   0  0  0  0  0  3  0  0  0  0  0  0
    1.8350   38.9540   24.1840 C   0  0  0  0  0  0  0  0  0  0  0  0
    0.9650   38.5310   25.1510 C   0  0  0  0  0  3  0  0  0  0  0  0
   -0.3680   38.7190   24.9700 C   0  0  0  0  0  3  0  0  0  0  0  0
   -0.8240   39.3080   23.8510 C   0  0  0  0  0  3  0  0  0  0  0  0
    0.0180   39.7720   22.7960 C   0  0  0  0  0  0  0  0  0  0  0  0
    1.3520   39.5750   23.0200 C   0  0  0  0  0  0  0  0  0  0  0  0
   -1.9650   39.5330   21.5600 N   0  0  0  0  0  0  0  0  0  0  0  0
   -3.1450   40.1050   21.8340 C   0  0  0  0  0  0  0  0  0  0  0  0
   -4.1320   39.0940   21.7410 C   0  0  0  0  0  3  0  0  0  0  0  0
   -3.5310   37.9130   21.4110 C   0  0  0  0  0  0  0  0  0  0  0  0
   -3.9950   36.6120   21.2100 C   0  0  0  0  0  3  0  0  0  0  0  0
   -3.1350   35.5870   20.9020 C   0  0  0  0  0  3  0  0  0  0  0  0
   -1.8000   35.8880   20.7990 C   0  0  0  0  0  3  0  0  0  0  0  0
   -1.3450   37.1820   20.9990 C   0  0  0  0  0  3  0  0  0  0  0  0
   -2.1830   38.2260   21.3080 C   0  0  0  0  0  0  0  0  0  0  0  0
   -3.4580   41.4700   22.1650 C   0  0  0  0  0  0  0  0  0  0  0  0
   -3.0000   42.4010   21.4000 O   0  0  0  0  0  1  0  0  0  0  0  0
   -4.2000   41.9310   23.2110 O   0  0  0  0  0  0  0  0  0  0  0  0
 19 18  2  0
 19 20  1  0
 18 17  1  0
  2  3  1  0
 20 21  2  0
 17 16  2  0
 21 16  1  0
 21 13  1  0
 23 22  1  0
 16 15  1  0
 13  1  1  0
 13 14  1  0
  1 11  1  0
 15 14  2  0
 14 22  1  0
  3  4  2  0
  3 12  1  0
 22 24  2  0
  4  5  1  0
 11 12  2  0
 11 10  1  0
 12  7  1  0
  5  6  2  0
 10  9  2  0
  7  6  1  0
  7  8  2  0
  9  8  1  0
M  RAD  8   1   3   2   2   4   2   5   2   6   2   8   2   9   2  10   2
M  CHG  1  23  -1
M  RAD  5  15   2  17   2  18   2  19   2  20   2
M  END
>  <_TriposChargeType>  (1) 
GASTEIGER

>  <SuCOS_score>  (1) 
0.38777051191253964

>  <Volume_score>  (1) 
0.43630538062092583

>  <Feature_score>  (1) 
0.33923564320415345

$$$$
