DOCK.F10.P5yjp/L1011_ligand.pdbt
     RDKit          3D

 30 33  0  0  0  0  0  0  0  0999 V2000
   -4.3340   39.2640   21.7990 C   0  0  0  0  0  0  0  0  0  0  0  0
   -3.2890   40.1810   21.8000 C   0  0  0  0  0  0  0  0  0  0  0  0
   -2.1490   39.5140   21.4350 N   0  0  0  0  0  4  0  0  0  0  0  0
   -2.4360   38.2200   21.2010 C   0  0  0  0  0  0  0  0  0  0  0  0
   -1.6880   37.1250   20.8050 C   0  0  0  0  0  3  0  0  0  0  0  0
   -2.2380   35.8720   20.6240 C   0  0  0  0  0  3  0  0  0  0  0  0
   -3.5940   35.7390   20.8590 C   0  0  0  0  0  0  0  0  0  0  0  0
   -4.1440   34.5130   20.6900 F   0  0  0  0  0  0  0  0  0  0  0  0
   -4.3480   36.8130   21.2510 C   0  0  0  0  0  3  0  0  0  0  0  0
   -3.7790   38.0580   21.4240 C   0  0  0  0  0  0  0  0  0  0  0  0
   -3.4890   41.5870   22.0920 C   0  0  0  0  0  0  0  0  0  0  0  0
   -3.9820   41.9570   23.2060 O   0  0  0  0  0  1  0  0  0  0  0  0
   -3.1690   42.6000   21.2030 O   0  0  0  0  0  0  0  0  0  0  0  0
   -5.7690   39.5000   22.0950 C   0  0  0  0  0  2  0  0  0  0  0  0
   -7.8340   41.0010   19.2000 C   0  0  0  0  0  1  0  0  0  0  0  0
   -7.0500   40.9580   20.4310 N   0  0  0  0  0  0  0  0  0  0  0  0
   -6.8330   42.2000   21.1060 C   0  0  0  0  0  1  0  0  0  0  0  0
   -6.5570   39.7180   20.8730 C   0  0  0  0  0  0  0  0  0  0  0  0
   -6.8000   38.6770   20.1740 O   0  0  0  0  0  0  0  0  0  0  0  0
   -0.8560   40.1580   21.3920 C   0  0  0  0  0  2  0  0  0  0  0  0
   -0.0650   39.7690   22.5870 C   0  0  0  0  0  0  0  0  0  0  0  0
   -0.7230   39.3570   23.7430 C   0  0  0  0  0  3  0  0  0  0  0  0
   -0.0140   38.8730   24.8340 C   0  0  0  0  0  3  0  0  0  0  0  0
    1.3520   38.8010   24.7670 C   0  0  0  0  0  3  0  0  0  0  0  0
    2.0550   39.1940   23.6560 C   0  0  0  0  0  0  0  0  0  0  0  0
    3.4540   39.1440   23.6600 C   0  0  0  0  0  3  0  0  0  0  0  0
    4.1140   39.5990   22.5390 C   0  0  0  0  0  3  0  0  0  0  0  0
    3.4630   40.0870   21.4440 C   0  0  0  0  0  3  0  0  0  0  0  0
    2.0550   40.1150   21.4900 C   0  0  0  0  0  3  0  0  0  0  0  0
    1.3330   39.6770   22.5720 C   0  0  0  0  0  0  0  0  0  0  0  0
 15 16  1  0
 19 18  2  0
 16 18  1  0
 16 17  1  0
  6  5  2  0
  6  7  1  0
  8  7  1  0
  5  4  1  0
  7  9  2  0
 18 14  1  0
  4 10  2  0
  4  3  1  0
 13 11  2  0
  9 10  1  0
 20  3  1  0
 20 21  1  0
 10  1  1  0
  3  2  1  0
 28 29  1  0
 28 27  2  0
 29 30  2  0
  1  2  2  0
  1 14  1  0
  2 11  1  0
 11 12  1  0
 27 26  1  0
 30 21  1  0
 30 25  1  0
 21 22  2  0
 25 26  2  0
 25 24  1  0
 22 23  1  0
 24 23  2  0
M  RAD  8   5   2   6   2   9   2  14   3  15   2  17   2  20   3  22   2
M  CHG  2   3   1  12  -1
M  RAD  6  23   2  24   2  26   2  27   2  28   2  29   2
M  END
>  <_TriposChargeType>  (1) 
GASTEIGER

>  <SuCOS_score>  (1) 
0.38284034531093847

>  <Volume_score>  (1) 
0.5445807093138879

>  <Feature_score>  (1) 
0.22109998130798908

$$$$
