DOCK.F10.P5yjp/L1010_ligand.pdbt
     RDKit          3D

 24 27  0  0  0  0  0  0  0  0999 V2000
   -3.1930   40.1700   21.8080 C   0  0  0  0  0  0  0  0  0  0  0  0
   -4.1600   39.2480   21.4640 C   0  0  0  0  0  3  0  0  0  0  0  0
   -3.5130   38.0490   21.2820 C   0  0  0  0  0  0  0  0  0  0  0  0
   -3.9810   36.7760   20.9270 C   0  0  0  0  0  3  0  0  0  0  0  0
   -3.1300   35.7050   20.8030 C   0  0  0  0  0  3  0  0  0  0  0  0
   -1.8020   35.9090   21.0340 C   0  0  0  0  0  3  0  0  0  0  0  0
   -1.3380   37.1590   21.3820 C   0  0  0  0  0  3  0  0  0  0  0  0
   -2.1890   38.2550   21.5120 C   0  0  0  0  0  0  0  0  0  0  0  0
   -2.0050   39.5440   21.8300 N   0  0  0  0  0  0  0  0  0  0  0  0
   -3.9990   41.8670   23.1840 O   0  0  0  0  0  1  0  0  0  0  0  0
   -3.4780   41.5760   22.0880 C   0  0  0  0  0  0  0  0  0  0  0  0
   -3.2000   42.6000   21.2000 O   0  0  0  0  0  0  0  0  0  0  0  0
   -0.7470   40.1340   22.1390 C   0  0  0  0  0  2  0  0  0  0  0  0
   -0.0430   39.5220   23.2670 C   0  0  0  0  0  0  0  0  0  0  0  0
   -0.6850   38.9460   24.3360 C   0  0  0  0  0  3  0  0  0  0  0  0
    0.0850   38.4010   25.3390 C   0  0  0  0  0  3  0  0  0  0  0  0
    1.4630   38.4120   25.3130 C   0  0  0  0  0  3  0  0  0  0  0  0
    2.1210   38.9940   24.2310 C   0  0  0  0  0  0  0  0  0  0  0  0
    3.4990   39.0150   24.1850 C   0  0  0  0  0  3  0  0  0  0  0  0
    4.1180   39.5980   23.1020 C   0  0  0  0  0  3  0  0  0  0  0  0
    3.3920   40.1480   22.0870 C   0  0  0  0  0  0  0  0  0  0  0  0
    3.9660   40.7340   20.9980 F   0  0  0  0  0  0  0  0  0  0  0  0
    2.0250   40.1090   22.1680 C   0  0  0  0  0  3  0  0  0  0  0  0
    1.3370   39.5310   23.2420 C   0  0  0  0  0  0  0  0  0  0  0  0
  5  4  1  0
  5  6  2  0
  4  3  2  0
 22 21  1  0
  6  7  1  0
 12 11  2  0
  3  2  1  0
  3  8  1  0
  7  8  2  0
  2  1  2  0
  8  9  1  0
  1  9  1  0
  1 11  1  0
  9 13  1  0
 21 23  1  0
 21 20  2  0
 11 10  1  0
 13 14  1  0
 23 24  2  0
 20 19  1  0
 24 14  1  0
 24 18  1  0
 14 15  2  0
 19 18  2  0
 18 17  1  0
 15 16  1  0
 17 16  2  0
M  RAD  8   2   2   4   2   5   2   6   2   7   2  13   3  15   2  16   2
M  CHG  1  10  -1
M  RAD  4  17   2  19   2  20   2  23   2
M  END
>  <_TriposChargeType>  (1) 
GASTEIGER

>  <SuCOS_score>  (1) 
0.3343016968528806

>  <Volume_score>  (1) 
0.4378521710308253

>  <Feature_score>  (1) 
0.2307512226749359

$$$$
