DOCK.F10.P5yjp/L1015_ligand.pdbt
     RDKit          3D

 32 35  0  0  0  0  0  0  0  0999 V2000
   -3.6380   40.9540   21.3530 N   0  0  0  0  0  0  0  0  0  0  0  0
   -3.3720   41.2530   20.3900 H   0  0  0  0  0  0  0  0  0  0  0  0
   -4.5600   41.7320   22.0730 C   0  0  0  0  0  0  0  0  0  0  0  0
   -4.2700   42.5080   23.1780 C   0  0  0  0  0  3  0  0  0  0  0  0
   -5.2000   43.2750   23.8520 C   0  0  0  0  0  3  0  0  0  0  0  0
   -6.4980   43.2860   23.4200 C   0  0  0  0  0  0  0  0  0  0  0  0
   -6.8210   42.5220   22.3180 C   0  0  0  0  0  3  0  0  0  0  0  0
   -5.9040   41.7740   21.6650 C   0  0  0  0  0  0  0  0  0  0  0  0
   -7.5440   44.0730   24.0800 C   0  0  0  0  0  0  0  0  0  0  0  0
   -8.4110   43.5130   25.0010 C   0  0  0  0  0  3  0  0  0  0  0  0
   -9.3890   44.2920   25.6050 C   0  0  0  0  0  3  0  0  0  0  0  0
   -9.4890   45.5830   25.2900 N   0  0  0  0  0  0  0  0  0  0  0  0
   -8.6670   46.1710   24.4000 C   0  0  0  0  0  3  0  0  0  0  0  0
   -7.7000   45.4090   23.8000 C   0  0  0  0  0  3  0  0  0  0  0  0
   -6.3630   40.8240   20.2760 S   0  0  1  0  0  6  0  0  0  0  0  0
   -7.9400   41.4010   19.7010 C   0  0  0  0  0  1  0  0  0  0  0  0
   -5.3450   40.9990   19.1870 O   0  0  0  0  0  0  0  0  0  0  0  0
   -6.4010   39.3560   20.6000 O   0  0  0  0  0  0  0  0  0  0  0  0
   -2.9490   39.5470   22.0090 S   0  0  2  0  0  6  0  0  0  0  0  0
   -3.3360   38.3680   21.1260 O   0  0  0  0  0  0  0  0  0  0  0  0
   -3.5450   39.2500   23.3600 O   0  0  0  0  0  0  0  0  0  0  0  0
   -0.9620   38.6050   24.3590 C   0  0  0  0  0  1  0  0  0  0  0  0
   -0.3590   39.2430   23.1160 C   0  0  0  0  0  0  0  0  0  0  0  0
   -1.2080   39.6400   22.1240 C   0  0  0  0  0  0  0  0  0  0  0  0
   -0.1750   40.2840   20.9470 S   0  0  0  0  0  0  0  0  0  0  0  0
    1.3310   40.0380   21.7370 C   0  0  0  0  0  0  0  0  0  0  0  0
    2.6550   40.3160   21.3850 C   0  0  0  0  0  3  0  0  0  0  0  0
    3.6900   40.0000   22.2380 C   0  0  0  0  0  3  0  0  0  0  0  0
    3.3150   39.4090   23.4240 C   0  0  0  0  0  0  0  0  0  0  0  0
    4.3240   39.0880   24.2830 F   0  0  0  0  0  0  0  0  0  0  0  0
    2.0280   39.1290   23.7850 C   0  0  0  0  0  3  0  0  0  0  0  0
    0.9600   39.4500   22.9150 C   0  0  0  0  0  0  0  0  0  0  0  0
 17 15  2  0
 15 16  1  6
 15 18  2  0
 15  8  1  0
  2  1  1  0
 25 26  1  0
 25 24  1  0
 20 19  2  0
 19  1  1  6
  1  3  1  0
 27 26  1  0
 27 28  2  0
  8  3  1  0
  8  7  2  0
 26 32  2  0
 19 24  1  0
 19 21  2  0
  3  4  2  0
 24 23  2  0
 28 29  1  0
  7  6  1  0
 32 23  1  0
 32 31  1  0
 23 22  1  0
  4  5  1  0
  6  5  2  0
  6  9  1  0
 29 31  2  0
 29 30  1  0
 14  9  1  0
 14 13  2  0
  9 10  2  0
 13 12  1  0
 10 11  1  0
 12 11  2  0
M  RAD  8   4   2   5   2   7   2  10   2  11   2  13   2  14   2  16   2
M  RAD  4  22   2  27   2  28   2  31   2
M  END
>  <_TriposChargeType>  (1) 
GASTEIGER

>  <SuCOS_score>  (1) 
0.3774848223354983

>  <Volume_score>  (1) 
0.48160424262512425

>  <Feature_score>  (1) 
0.2733654020458724

$$$$
