DOCK.F10.P3n7o/L1007_ligand.pdbt
     RDKit          3D

 31 35  0  0  0  0  0  0  0  0999 V2000
   -2.1290   39.2960   22.1160 C   0  0  0  0  0  3  0  0  0  0  0  0
   -0.7230   39.3710   22.5020 C   0  0  0  0  0  0  0  0  0  0  0  0
   -0.3960   38.8740   23.7760 C   0  0  0  0  0  3  0  0  0  0  0  0
    0.8780   38.8770   24.2790 C   0  0  0  0  0  3  0  0  0  0  0  0
    1.8950   39.3900   23.5050 C   0  0  0  0  0  0  0  0  0  0  0  0
    3.1960   39.4000   24.0000 C   0  0  0  0  0  3  0  0  0  0  0  0
    4.2060   39.9130   23.2260 C   0  0  0  0  0  3  0  0  0  0  0  0
    3.8890   40.3990   21.9790 C   0  0  0  0  0  3  0  0  0  0  0  0
    2.6110   40.3920   21.4860 C   0  0  0  0  0  3  0  0  0  0  0  0
    1.5730   39.8780   22.2520 C   0  0  0  0  0  0  0  0  0  0  0  0
    0.2890   39.8730   21.7500 C   0  0  0  0  0  3  0  0  0  0  0  0
   -4.2100   35.3630   22.7170 C   0  0  0  0  0  1  0  0  0  0  0  0
   -3.4460   36.0780   21.5910 C   0  0  2  0  0  0  0  0  0  0  0  0
   -2.1750   36.5750   22.0430 C   0  0  0  0  0  0  0  0  0  0  0  0
   -1.1100   36.0340   22.4000 O   0  0  0  0  0  0  0  0  0  0  0  0
   -2.6630   37.9150   21.9070 C   0  0  0  0  0  0  0  0  0  0  0  0
   -3.8260   37.4620   21.4940 C   0  0  0  0  0  0  0  0  0  0  0  0
   -5.0260   38.0730   21.0950 O   0  0  0  0  0  0  0  0  0  0  0  0
   -5.5410   38.5670   21.8150 H   0  0  0  0  0  0  0  0  0  0  0  0
   -3.4640   35.2880   20.3370 C   0  0  0  0  0  0  0  0  0  0  0  0
   -2.4100   35.4350   19.4660 C   0  0  0  0  0  3  0  0  0  0  0  0
   -2.3420   34.7400   18.2720 C   0  0  0  0  0  3  0  0  0  0  0  0
   -3.3440   33.8700   17.9240 C   0  0  0  0  0  3  0  0  0  0  0  0
   -4.4000   33.7250   18.8000 C   0  0  0  0  0  3  0  0  0  0  0  0
   -4.4590   34.4260   19.9920 C   0  0  0  0  0  3  0  0  0  0  0  0
   -2.9410   40.1210   23.0260 C   0  0  0  0  0  0  0  0  0  0  0  0
   -3.4540   39.6030   24.1950 C   0  0  0  0  0  3  0  0  0  0  0  0
   -4.2250   40.3300   25.0620 C   0  0  0  0  0  3  0  0  0  0  0  0
   -4.5080   41.6390   24.7670 C   0  0  0  0  0  3  0  0  0  0  0  0
   -4.0000   42.1730   23.6000 C   0  0  0  0  0  3  0  0  0  0  0  0
   -3.2200   41.4420   22.7200 C   0  0  0  0  0  3  0  0  0  0  0  0
 23 22  1  0
 23 24  2  0
 22 21  2  0
 24 25  1  0
 21 20  1  0
 25 20  2  0
 20 13  1  0
 18 17  1  0
 18 19  1  0
  9  8  2  0
  9 10  1  0
 17 13  1  0
 17 16  2  0
 13 14  1  0
 13 12  1  1
 11 10  2  0
 11  2  1  0
 16 14  1  0
 16  1  1  0
  8  7  1  0
 14 15  2  0
  1  2  1  0
  1 26  1  0
 10  5  1  0
  2  3  2  0
 31 26  1  0
 31 30  2  0
 26 27  2  0
  7  6  2  0
  5  6  1  0
  5  4  2  0
 30 29  1  0
  3  4  1  0
 27 28  1  0
 29 28  2  0
M  RAD  8   1   2   3   2   4   2   6   2   7   2   8   2   9   2  11   2
M  RAD  8  12   2  21   2  22   2  23   2  24   2  25   2  27   2  28   2
M  RAD  3  29   2  30   2  31   2
M  END
>  <_TriposChargeType>  (1) 
GASTEIGER

>  <SuCOS_score>  (1) 
0.3595518883792903

>  <Volume_score>  (1) 
0.46017014694508895

>  <Feature_score>  (1) 
0.2589336298134916

$$$$
