DOCK.F10.P3n7o/L1006_ligand.pdbt
     RDKit          3D

 42 46  0  0  0  0  0  0  0  0999 V2000
   -1.4660   38.5770   22.2940 C   0  0  0  0  0  3  0  0  0  0  0  0
   -2.3590   36.1300   22.1570 C   0  0  0  0  0  0  0  0  0  0  0  0
   -1.7930   37.3150   21.6650 C   0  0  0  0  0  0  0  0  0  0  0  0
   -1.7230   37.1330   20.3130 N   0  0  0  0  0  0  0  0  0  0  0  0
   -2.2000   35.9580   19.9460 C   0  0  0  0  0  0  0  0  0  0  0  0
   -2.3240   35.4000   18.6680 C   0  0  0  0  0  3  0  0  0  0  0  0
   -2.8730   34.1580   18.5110 C   0  0  0  0  0  0  0  0  0  0  0  0
   -3.0160   33.5390   17.1510 C   0  0  0  0  0  1  0  0  0  0  0  0
   -3.2850   33.5080   19.6460 C   0  0  0  0  0  3  0  0  0  0  0  0
   -3.1630   34.0560   20.9020 C   0  0  0  0  0  3  0  0  0  0  0  0
   -2.6100   35.3050   21.0830 C   0  0  0  0  0  0  0  0  0  0  0  0
   -1.3350   37.8390   19.6170 H   0  0  0  0  0  0  0  0  0  0  0  0
   -2.5190   35.8270   23.5560 C   0  0  0  0  0  2  0  0  0  0  0  0
   -1.7230   34.7100   24.1740 C   0  0  1  0  0  0  0  0  0  0  0  0
   -0.3990   34.5100   23.4000 C   0  0  0  0  0  1  0  0  0  0  0  0
   -1.3800   34.8850   25.6100 C   0  0  0  0  0  1  0  0  0  0  0  0
   -2.2570   31.0090   23.1990 C   0  0  0  0  0  1  0  0  0  0  0  0
   -1.6560   32.3710   23.3970 C   0  0  0  0  0  0  0  0  0  0  0  0
   -0.4850   32.5950   23.0020 O   0  0  0  0  0  0  0  0  0  0  0  0
   -2.4230   33.4070   24.0360 N   0  0  0  0  0  0  0  0  0  0  0  0
   -3.3800   33.2410   24.3660 H   0  0  0  0  0  0  0  0  0  0  0  0
   -2.7190   39.2160   22.8490 C   0  0  0  0  0  0  0  0  0  0  0  0
   -3.7090   39.9160   22.3950 C   0  0  0  0  0  0  0  0  0  0  0  0
   -4.0340   40.3940   21.1150 O   0  0  0  0  0  0  0  0  0  0  0  0
   -4.3880   40.0460   23.6880 C   0  0  1  0  0  0  0  0  0  0  0  0
   -5.7060   39.3490   23.8320 C   0  0  0  0  0  1  0  0  0  0  0  0
   -3.2640   39.2570   24.1900 C   0  0  0  0  0  0  0  0  0  0  0  0
   -2.9130   38.8010   25.3110 O   0  0  0  0  0  0  0  0  0  0  0  0
   -4.7710   39.8870   20.6280 H   0  0  0  0  0  0  0  0  0  0  0  0
   -4.3970   41.4860   24.0970 C   0  0  0  0  0  0  0  0  0  0  0  0
   -4.4030   41.8720   25.4260 C   0  0  0  0  0  3  0  0  0  0  0  0
   -4.4090   43.2130   25.7840 C   0  0  0  0  0  3  0  0  0  0  0  0
   -4.4110   44.1970   24.8190 C   0  0  0  0  0  0  0  0  0  0  0  0
   -4.4190   45.6550   25.2000 C   0  0  0  0  0  1  0  0  0  0  0  0
   -4.4050   43.8490   23.5040 C   0  0  0  0  0  3  0  0  0  0  0  0
   -4.3990   42.5090   23.1720 C   0  0  0  0  0  3  0  0  0  0  0  0
   -0.3720   38.7100   23.2320 C   0  0  0  0  0  0  0  0  0  0  0  0
    0.6440   39.5830   22.9690 C   0  0  0  0  0  3  0  0  0  0  0  0
    1.7140   39.7350   23.8250 C   0  0  0  0  0  3  0  0  0  0  0  0
    1.8080   39.0030   24.9990 C   0  0  0  0  0  3  0  0  0  0  0  0
    0.7990   38.1210   25.2820 C   0  0  0  0  0  3  0  0  0  0  0  0
   -0.2650   37.9780   24.4210 C   0  0  0  0  0  3  0  0  0  0  0  0
  8  7  1  0
  7  6  2  0
  7  9  1  0
  6  5  1  0
 12  4  1  0
  9 10  2  0
  5  4  1  0
  5 11  2  0
  4  3  1  0
 29 24  1  0
 10 11  1  0
 11  2  1  0
 24 23  1  0
  3  2  2  0
  3  1  1  0
  2 13  1  0
  1 22  1  0
  1 37  1  0
 23 22  2  0
 23 25  1  0
 22 27  1  0
 38 37  2  0
 38 39  1  0
 19 18  2  0
 36 35  2  0
 36 30  1  0
 17 18  1  0
 37 42  1  0
 18 20  1  0
 14 15  1  6
 35 33  1  0
 13 14  1  0
 25 26  1  6
 25 30  1  0
 25 27  1  0
 39 40  2  0
 20 14  1  0
 20 21  1  0
 30 31  2  0
 14 16  1  0
 27 28  2  0
 42 41  2  0
 33 34  1  0
 33 32  2  0
 40 41  1  0
 31 32  1  0
M  RAD  8   1   2   6   2   8   2   9   2  10   2  13   3  15   2  16   2
M  RAD  8  17   2  26   2  31   2  32   2  34   2  35   2  36   2  38   2
M  RAD  4  39   2  40   2  41   2  42   2
M  END
>  <_TriposChargeType>  (1) 
GASTEIGER

>  <SuCOS_score>  (1) 
0.26968122827325897

>  <Volume_score>  (1) 
0.4483178397521027

>  <Feature_score>  (1) 
0.09104461679441526

$$$$
