DOCK.F10.P3n7o/L1012_ligand.pdbt
     RDKit          3D

 30 32  0  0  0  0  0  0  0  0999 V2000
   -2.3950   36.0770   23.3160 N   0  0  0  0  0  0  0  0  0  0  0  0
   -2.5020   35.3830   24.0980 H   0  0  0  0  0  0  0  0  0  0  0  0
   -2.2860   34.6440   19.3750 C   0  0  0  0  0  0  0  0  0  0  0  0
   -2.6000   35.9670   19.6000 C   0  0  0  0  0  3  0  0  0  0  0  0
   -2.6320   36.4330   20.9100 C   0  0  0  0  0  3  0  0  0  0  0  0
   -2.3610   35.6230   21.9840 C   0  0  0  0  0  0  0  0  0  0  0  0
   -2.0490   34.3050   21.7360 C   0  0  0  0  0  0  0  0  0  0  0  0
   -2.0070   33.8000   20.4520 C   0  0  0  0  0  3  0  0  0  0  0  0
   -1.6990   33.2390   23.0760 S   0  0  2  0  0  6  0  0  0  0  0  0
    0.0390   33.2950   23.4730 C   0  0  0  0  0  1  0  0  0  0  0  0
   -1.9990   31.7950   22.7180 O   0  0  0  0  0  0  0  0  0  0  0  0
   -2.4450   33.6440   24.3080 O   0  0  0  0  0  0  0  0  0  0  0  0
   -2.2430   34.1190   18.0150 C   0  0  0  0  0  0  0  0  0  0  0  0
   -1.2000   34.2000   17.3230 O   0  0  0  0  0  0  0  0  0  0  0  0
   -3.3370   33.0000   16.1540 C   0  0  0  0  0  1  0  0  0  0  0  0
   -3.3600   33.5260   17.4720 O   0  0  0  0  0  0  0  0  0  0  0  0
   -2.2660   37.7300   23.6820 S   0  0  2  0  0  6  0  0  0  0  0  0
   -2.4970   37.9710   25.1480 O   0  0  0  0  0  0  0  0  0  0  0  0
   -3.3640   38.4780   22.9630 O   0  0  0  0  0  0  0  0  0  0  0  0
   -0.7010   38.4230   23.3100 C   0  0  0  0  0  0  0  0  0  0  0  0
   -0.2480   39.2340   21.8870 S   0  0  0  0  0  0  0  0  0  0  0  0
    1.3740   39.5950   22.2710 C   0  0  0  0  0  0  0  0  0  0  0  0
    2.4040   40.2550   21.5860 C   0  0  0  0  0  3  0  0  0  0  0  0
    3.6540   40.4000   22.1700 C   0  0  0  0  0  3  0  0  0  0  0  0
    3.7860   39.8630   23.4220 C   0  0  0  0  0  0  0  0  0  0  0  0
    5.0180   40.0000   24.0080 F   0  0  0  0  0  0  0  0  0  0  0  0
    2.7990   39.2160   24.1070 C   0  0  0  0  0  3  0  0  0  0  0  0
    1.5210   39.0640   23.5200 C   0  0  0  0  0  0  0  0  0  0  0  0
    0.4410   38.4520   24.0620 C   0  0  0  0  0  0  0  0  0  0  0  0
    0.4030   37.8000   25.4420 C   0  0  0  0  0  1  0  0  0  0  0  0
 15 16  1  0
 14 13  2  0
 16 13  1  0
 13  3  1  0
  3  4  2  0
  3  8  1  0
  4  5  1  0
  8  7  2  0
  5  6  2  0
 23 24  1  0
 23 22  2  0
  7  6  1  0
  7  9  1  0
 21 22  1  0
 21 20  1  0
  6  1  1  0
 24 25  2  0
 22 28  1  0
 11  9  2  0
 19 17  2  0
  9 10  1  1
  9 12  2  0
 20 17  1  0
 20 29  2  0
 17  1  1  1
  1  2  1  0
 25 26  1  0
 25 27  1  0
 28 29  1  0
 28 27  2  0
 17 18  2  0
 29 30  1  0
M  RAD  8   4   2   5   2   8   2  10   2  15   2  23   2  24   2  27   2
M  RAD  1  30   2
M  END
>  <_TriposChargeType>  (1) 
GASTEIGER

>  <SuCOS_score>  (1) 
0.2750438404377748

>  <Volume_score>  (1) 
0.3887722400265222

>  <Feature_score>  (1) 
0.1613154408490274

$$$$
