DOCK.F10.P3n7o/L1011_ligand.pdbt
     RDKit          3D

 30 33  0  0  0  0  0  0  0  0999 V2000
   -4.1750   40.5790   23.9270 C   0  0  0  0  0  0  0  0  0  0  0  0
   -3.2240   40.1900   22.9910 C   0  0  0  0  0  0  0  0  0  0  0  0
   -2.5960   39.0730   23.4730 N   0  0  0  0  0  4  0  0  0  0  0  0
   -3.1150   38.7420   24.6700 C   0  0  0  0  0  0  0  0  0  0  0  0
   -2.8710   37.7250   25.5770 C   0  0  0  0  0  3  0  0  0  0  0  0
   -3.5670   37.6000   26.7630 C   0  0  0  0  0  3  0  0  0  0  0  0
   -4.5390   38.5470   27.0250 C   0  0  0  0  0  0  0  0  0  0  0  0
   -5.2250   38.4380   28.1880 F   0  0  0  0  0  0  0  0  0  0  0  0
   -4.7920   39.5590   26.1380 C   0  0  0  0  0  3  0  0  0  0  0  0
   -4.0860   39.6650   24.9570 C   0  0  0  0  0  0  0  0  0  0  0  0
   -3.0500   40.8810   21.7270 C   0  0  0  0  0  0  0  0  0  0  0  0
   -2.1770   41.8000   21.6020 O   0  0  0  0  0  1  0  0  0  0  0  0
   -3.8010   40.5990   20.5980 O   0  0  0  0  0  0  0  0  0  0  0  0
   -5.1310   41.7120   23.8560 C   0  0  0  0  0  2  0  0  0  0  0  0
   -4.1460   45.2660   24.9940 C   0  0  0  0  0  1  0  0  0  0  0  0
   -4.6790   44.2130   24.1350 N   0  0  0  0  0  0  0  0  0  0  0  0
   -5.2000   44.6120   22.8640 C   0  0  0  0  0  1  0  0  0  0  0  0
   -4.6520   42.8860   24.6000 C   0  0  0  0  0  0  0  0  0  0  0  0
   -4.1780   42.6540   25.7630 O   0  0  0  0  0  0  0  0  0  0  0  0
   -1.5020   38.4360   22.7740 C   0  0  0  0  0  2  0  0  0  0  0  0
   -0.2210   38.7550   23.4540 C   0  0  0  0  0  0  0  0  0  0  0  0
   -0.0260   38.3600   24.7740 C   0  0  0  0  0  3  0  0  0  0  0  0
    1.2000   38.5350   25.3980 C   0  0  0  0  0  3  0  0  0  0  0  0
    2.2320   39.1060   24.7000 C   0  0  0  0  0  3  0  0  0  0  0  0
    2.0990   39.5170   23.3980 C   0  0  0  0  0  0  0  0  0  0  0  0
    3.1720   40.1380   22.7480 C   0  0  0  0  0  3  0  0  0  0  0  0
    2.9700   40.5790   21.4580 C   0  0  0  0  0  3  0  0  0  0  0  0
    1.7820   40.4330   20.8030 C   0  0  0  0  0  3  0  0  0  0  0  0
    0.7340   39.8010   21.5010 C   0  0  0  0  0  3  0  0  0  0  0  0
    0.8640   39.3360   22.7860 C   0  0  0  0  0  0  0  0  0  0  0  0
 13 11  2  0
 28 27  2  0
 28 29  1  0
 27 26  1  0
 29 30  2  0
 12 11  1  0
 11  2  1  0
 26 25  2  0
 20 21  1  0
 20  3  1  0
 30 25  1  0
 30 21  1  0
 17 16  1  0
  2  3  1  0
  2  1  2  0
 25 24  1  0
 21 22  2  0
  3  4  1  0
 14  1  1  0
 14 18  1  0
  1 10  1  0
 16 18  1  0
 16 15  1  0
 18 19  2  0
  4 10  2  0
  4  5  1  0
 24 23  2  0
 22 23  1  0
 10  9  1  0
  5  6  2  0
  9  7  2  0
  6  7  1  0
  7  8  1  0
M  RAD  8   5   2   6   2   9   2  14   3  15   2  17   2  20   3  22   2
M  CHG  2   3   1  12  -1
M  RAD  6  23   2  24   2  26   2  27   2  28   2  29   2
M  END
>  <_TriposChargeType>  (1) 
GASTEIGER

>  <SuCOS_score>  (1) 
0.2377819872007198

>  <Volume_score>  (1) 
0.37623542476401994

>  <Feature_score>  (1) 
0.09932854963741969

$$$$
