DOCK.F10.P3n7o/L1017_ligand.pdbt
     RDKit          3D

 31 34  0  0  0  0  0  0  0  0999 V2000
   -4.1990   40.9880   23.7100 C   0  0  0  0  0  0  0  0  0  0  0  0
   -3.1690   40.4950   22.9460 C   0  0  0  0  0  0  0  0  0  0  0  0
   -2.6040   39.4290   23.5000 N   0  0  0  0  0  4  0  0  0  0  0  0
   -3.2410   39.1900   24.6470 C   0  0  0  0  0  0  0  0  0  0  0  0
   -3.1140   38.2460   25.6630 C   0  0  0  0  0  3  0  0  0  0  0  0
   -3.8860   38.1840   26.7850 C   0  0  0  0  0  3  0  0  0  0  0  0
   -4.8930   39.1440   26.9450 C   0  0  0  0  0  0  0  0  0  0  0  0
   -5.6580   39.1330   28.0430 F   0  0  0  0  0  0  0  0  0  0  0  0
   -5.0570   40.0950   25.9550 C   0  0  0  0  0  3  0  0  0  0  0  0
   -4.2680   40.1430   24.8260 C   0  0  0  0  0  0  0  0  0  0  0  0
   -2.8340   41.1160   21.6190 C   0  0  0  0  0  0  0  0  0  0  0  0
   -1.7940   41.8000   21.5370 O   0  0  0  0  0  1  0  0  0  0  0  0
   -3.6010   40.9990   20.4900 O   0  0  0  0  0  0  0  0  0  0  0  0
   -4.8480   42.2870   23.6440 C   0  0  0  0  0  2  0  0  0  0  0  0
   -5.8450   42.6620   24.5790 N   0  0  0  0  0  0  0  0  0  0  0  0
   -6.3880   42.0170   25.1110 H   0  0  0  0  0  0  0  0  0  0  0  0
   -4.2000   45.0040   24.5730 C   0  0  0  0  0  1  0  0  0  0  0  0
   -5.0680   43.8560   25.6000 S   0  0  2  0  0  6  0  0  0  0  0  0
   -4.2200   43.2550   26.6200 O   0  0  0  0  0  0  0  0  0  0  0  0
   -6.1990   44.6530   26.2990 O   0  0  0  0  0  0  0  0  0  0  0  0
   -1.6020   38.5850   22.9030 C   0  0  0  0  0  2  0  0  0  0  0  0
   -0.2920   38.6800   23.5530 C   0  0  0  0  0  0  0  0  0  0  0  0
   -0.0420   38.2570   24.8090 C   0  0  0  0  0  3  0  0  0  0  0  0
    1.1910   38.3930   25.3940 C   0  0  0  0  0  3  0  0  0  0  0  0
    2.2350   38.9800   24.7010 C   0  0  0  0  0  3  0  0  0  0  0  0
    1.9720   39.4240   23.3920 C   0  0  0  0  0  0  0  0  0  0  0  0
    3.0030   40.0050   22.6860 C   0  0  0  0  0  3  0  0  0  0  0  0
    2.7800   40.4390   21.4030 C   0  0  0  0  0  3  0  0  0  0  0  0
    1.5570   40.3070   20.8020 C   0  0  0  0  0  3  0  0  0  0  0  0
    0.5690   39.7260   21.5210 C   0  0  0  0  0  3  0  0  0  0  0  0
    0.7360   39.2660   22.8520 C   0  0  0  0  0  0  0  0  0  0  0  0
 13 11  2  0
 29 28  2  0
 29 30  1  0
 28 27  1  0
 30 31  2  0
 12 11  1  0
 11  2  1  0
 27 26  2  0
 31 26  1  0
 31 22  1  0
 21  3  1  0
 21 22  1  0
  2  3  1  0
  2  1  2  0
 26 25  1  0
  3  4  1  0
 22 23  2  0
 14  1  1  0
 14 15  1  0
  1 10  1  0
 18 17  1  6
 15 16  1  0
 15 18  1  0
  4 10  2  0
  4  5  1  0
 25 24  2  0
 23 24  1  0
 10  9  1  0
 18 20  2  0
 18 19  2  0
  5  6  2  0
  9  7  2  0
  6  7  1  0
  7  8  1  0
M  RAD  8   5   2   6   2   9   2  14   3  17   2  21   3  23   2  24   2
M  CHG  2   3   1  12  -1
M  RAD  5  25   2  27   2  28   2  29   2  30   2
M  END
>  <_TriposChargeType>  (1) 
GASTEIGER

>  <SuCOS_score>  (1) 
0.23549194746262286

>  <Volume_score>  (1) 
0.390827517447657

>  <Feature_score>  (1) 
0.08015637747758872

$$$$
