DOCK.F36.P4kp0/L1005_ligand.pdbt
     RDKit          3D

 31 34  0  0  0  0  0  0  0  0999 V2000
   -4.2280   38.6930   21.4590 C   0  0  0  0  0  0  0  0  0  0  0  0
   -3.0390   39.4450   21.5750 C   0  0  0  0  0  0  0  0  0  0  0  0
   -2.0000   38.7110   21.2020 N   0  0  0  0  0  4  0  0  0  0  0  0
   -2.4760   37.4570   20.8370 C   0  0  0  0  0  0  0  0  0  0  0  0
   -1.7400   36.3690   20.4160 C   0  0  0  0  0  3  0  0  0  0  0  0
   -2.4420   35.1870   20.1400 C   0  0  0  0  0  3  0  0  0  0  0  0
   -3.8060   35.1530   20.2920 C   0  0  0  0  0  0  0  0  0  0  0  0
   -4.5110   34.0020   20.0220 F   0  0  0  0  0  0  0  0  0  0  0  0
   -4.5020   36.2710   20.7180 C   0  0  0  0  0  3  0  0  0  0  0  0
   -3.8460   37.4580   21.0000 C   0  0  0  0  0  0  0  0  0  0  0  0
   -3.0750   40.8190   22.0770 C   0  0  0  0  0  0  0  0  0  0  0  0
   -2.6090   41.8000   21.4000 O   0  0  0  0  0  1  0  0  0  0  0  0
   -3.6000   41.1880   23.2940 O   0  0  0  0  0  0  0  0  0  0  0  0
   -5.5610   39.1950   21.8080 C   0  0  0  0  0  2  0  0  0  0  0  0
   -6.1910   41.3720   20.7110 C   0  0  0  0  0  0  0  0  0  0  0  0
   -6.3590   40.7680   19.6070 O   0  0  0  0  0  0  0  0  0  0  0  0
   -5.7870   40.5930   21.8280 N   0  0  0  0  0  0  0  0  0  0  0  0
   -5.6640   41.1570   22.7340 H   0  0  0  0  0  0  0  0  0  0  0  0
   -6.0000   43.5030   21.9200 C   0  0  0  0  0  1  0  0  0  0  0  0
   -6.4000   42.7460   20.8000 O   0  0  0  0  0  0  0  0  0  0  0  0
   -0.5870   39.0490   21.1990 C   0  0  0  0  0  2  0  0  0  0  0  0
    0.0300   38.7660   22.4800 C   0  0  0  0  0  0  0  0  0  0  0  0
   -0.6960   38.1720   23.5010 C   0  0  0  0  0  3  0  0  0  0  0  0
   -0.1700   37.7720   24.7090 C   0  0  0  0  0  3  0  0  0  0  0  0
    1.1790   37.9880   24.8920 C   0  0  0  0  0  3  0  0  0  0  0  0
    1.9410   38.5690   23.9290 C   0  0  0  0  0  0  0  0  0  0  0  0
    3.2610   38.8000   24.1980 C   0  0  0  0  0  3  0  0  0  0  0  0
    4.0780   39.4370   23.2710 C   0  0  0  0  0  3  0  0  0  0  0  0
    3.5100   39.8320   22.0640 C   0  0  0  0  0  3  0  0  0  0  0  0
    2.1800   39.6020   21.7860 C   0  0  0  0  0  3  0  0  0  0  0  0
    1.3770   38.9700   22.7020 C   0  0  0  0  0  0  0  0  0  0  0  0
 16 15  2  0
  8  7  1  0
  6  7  2  0
  6  5  1  0
  7  9  1  0
  5  4  2  0
 15 20  1  0
 15 17  1  0
  9 10  2  0
 20 19  1  0
  4 10  1  0
  4  3  1  0
 10  1  1  0
 21  3  1  0
 21 22  1  0
  3  2  1  0
 12 11  1  0
  1  2  2  0
  1 14  1  0
  2 11  1  0
 30 29  1  0
 30 31  2  0
 14 17  1  0
 17 18  1  0
 29 28  2  0
 11 13  2  0
 22 31  1  0
 22 23  2  0
 31 26  1  0
 28 27  1  0
 23 24  1  0
 26 27  2  0
 26 25  1  0
 24 25  2  0
M  RAD  8   5   2   6   2   9   2  14   3  19   2  21   3  23   2  24   2
M  CHG  2   3   1  12  -1
M  RAD  5  25   2  27   2  28   2  29   2  30   2
M  END
>  <_TriposChargeType>  (1) 
GASTEIGER

>  <SuCOS_score>  (1) 
0.3541109870083713

>  <Volume_score>  (1) 
0.5322063860346923

>  <Feature_score>  (1) 
0.17601558798205036

$$$$
