DOCK.F36.P4kp0/L1008_ligand.pdbt
     RDKit          3D

 32 36  0  0  0  0  0  0  0  0999 V2000
   -2.7750   38.1840   22.4990 C   0  0  0  0  0  3  0  0  0  0  0  0
    4.5880   39.4010   23.4280 C   0  0  0  0  0  1  0  0  0  0  0  0
    3.2550   39.5810   22.7740 C   0  0  0  0  0  0  0  0  0  0  0  0
    3.1580   40.4380   21.7010 C   0  0  0  0  0  3  0  0  0  0  0  0
    1.9120   40.5830   21.1180 C   0  0  0  0  0  3  0  0  0  0  0  0
    0.8130   39.8840   21.6090 C   0  0  0  0  0  0  0  0  0  0  0  0
   -0.8320   39.8090   21.1640 S   0  0  0  0  0  0  0  0  0  0  0  0
   -1.3920   38.7010   22.3280 C   0  0  0  0  0  0  0  0  0  0  0  0
   -0.2560   38.4150   23.0450 C   0  0  0  0  0  0  0  0  0  0  0  0
   -0.3620   37.4300   24.2080 C   0  0  0  0  0  1  0  0  0  0  0  0
    0.8820   39.0260   22.6730 C   0  0  0  0  0  0  0  0  0  0  0  0
    2.1630   38.9060   23.2380 C   0  0  0  0  0  3  0  0  0  0  0  0
   -3.8150   39.2320   22.3110 C   0  0  0  0  0  0  0  0  0  0  0  0
   -4.1460   40.1310   21.4410 C   0  0  0  0  0  0  0  0  0  0  0  0
   -3.6010   40.5170   20.2050 O   0  0  0  0  0  0  0  0  0  0  0  0
   -5.2850   40.6080   22.1920 C   0  0  1  0  0  0  0  0  0  0  0  0
   -6.6510   40.2920   21.6130 C   0  0  0  0  0  1  0  0  0  0  0  0
   -4.9120   39.6020   23.1650 C   0  0  0  0  0  0  0  0  0  0  0  0
   -5.3820   39.2270   24.2990 O   0  0  0  0  0  0  0  0  0  0  0  0
   -4.0370   40.1260   19.3810 H   0  0  0  0  0  0  0  0  0  0  0  0
   -5.1760   41.9740   22.7540 C   0  0  0  0  0  0  0  0  0  0  0  0
   -4.5930   42.2300   23.9720 C   0  0  0  0  0  3  0  0  0  0  0  0
   -4.4960   43.5110   24.4910 C   0  0  0  0  0  3  0  0  0  0  0  0
   -4.9930   44.5630   23.7760 C   0  0  0  0  0  3  0  0  0  0  0  0
   -5.5790   44.3210   22.5520 C   0  0  0  0  0  3  0  0  0  0  0  0
   -5.6750   43.0350   22.0350 C   0  0  0  0  0  3  0  0  0  0  0  0
   -2.9940   37.1500   21.4520 C   0  0  0  0  0  0  0  0  0  0  0  0
   -1.9850   36.7430   20.6050 C   0  0  0  0  0  3  0  0  0  0  0  0
   -2.2430   35.7970   19.6660 C   0  0  0  0  0  3  0  0  0  0  0  0
   -3.4730   35.2380   19.5400 C   0  0  0  0  0  3  0  0  0  0  0  0
   -4.4910   35.6540   20.4020 C   0  0  0  0  0  3  0  0  0  0  0  0
   -4.2660   36.6110   21.3630 C   0  0  0  0  0  3  0  0  0  0  0  0
 20 15  1  0
 30 29  1  0
 30 31  2  0
 29 28  2  0
 15 14  1  0
 31 32  1  0
 28 27  1  0
  5  6  2  0
  5  4  1  0
  7  6  1  0
  7  8  1  0
 32 27  2  0
 14 16  1  0
 14 13  2  0
 27  1  1  0
  6 11  1  0
 16 17  1  6
  4  3  2  0
 26 25  2  0
 26 21  1  0
 16 21  1  0
 16 18  1  0
 13  1  1  0
 13 18  1  0
  8  1  1  0
  8  9  2  0
 25 24  1  0
 11  9  1  0
 11 12  2  0
 21 22  2  0
  3 12  1  0
  3  2  1  0
  9 10  1  0
 18 19  2  0
 24 23  2  0
 22 23  1  0
M  RAD  8   1   2   2   2   4   2   5   2  10   2  12   2  17   2  22   2
M  RAD  8  23   2  24   2  25   2  26   2  28   2  29   2  30   2  31   2
M  RAD  1  32   2
M  END
>  <_TriposChargeType>  (1) 
GASTEIGER

>  <SuCOS_score>  (1) 
0.35465277950496266

>  <Volume_score>  (1) 
0.5252458291901447

>  <Feature_score>  (1) 
0.18405972981978058

$$$$
