DOCK.F36.P4kp0/L1001_ligand.pdbt
     RDKit          3D

 32 35  0  0  0  0  0  0  0  0999 V2000
   -1.5540   34.7470   23.4510 C   0  0  0  0  0  0  0  0  0  0  0  0
   -1.1260   35.8120   24.2580 C   0  0  0  0  0  0  0  0  0  0  0  0
   -1.2030   36.9500   23.5630 N   0  0  0  0  0  4  0  0  0  0  0  0
   -1.6640   36.6410   22.3410 C   0  0  0  0  0  0  0  0  0  0  0  0
   -1.9260   37.4650   21.2300 C   0  0  0  0  0  3  0  0  0  0  0  0
   -2.4000   36.9510   20.0620 C   0  0  0  0  0  3  0  0  0  0  0  0
   -2.6340   35.6000   19.9420 C   0  0  0  0  0  0  0  0  0  0  0  0
   -3.1040   35.0460   18.8010 F   0  0  0  0  0  0  0  0  0  0  0  0
   -2.3700   34.8000   21.0440 C   0  0  0  0  0  3  0  0  0  0  0  0
   -1.8860   35.2970   22.2500 C   0  0  0  0  0  0  0  0  0  0  0  0
   -0.6790   35.6410   25.6310 C   0  0  0  0  0  0  0  0  0  0  0  0
    0.3480   34.9990   25.8830 O   0  0  0  0  0  1  0  0  0  0  0  0
   -1.4100   36.2000   26.6530 O   0  0  0  0  0  0  0  0  0  0  0  0
   -1.6050   33.3630   23.8850 C   0  0  0  0  0  2  0  0  0  0  0  0
   -1.0080   31.0790   23.2620 C   0  0  0  0  0  0  0  0  0  0  0  0
   -2.1550   30.6580   23.5790 O   0  0  0  0  0  0  0  0  0  0  0  0
   -0.6360   32.4440   23.4010 N   0  0  0  0  0  0  0  0  0  0  0  0
    0.7150   32.8240   23.0040 C   0  0  0  0  0  1  0  0  0  0  0  0
   -0.0980   30.1740   22.7650 O   0  0  0  0  0  0  0  0  0  0  0  0
    1.0010   29.3970   20.8090 C   0  0  0  0  0  1  0  0  0  0  0  0
   -0.2860   29.4000   21.6000 C   0  0  0  0  0  2  0  0  0  0  0  0
   -0.8700   38.2790   23.9840 C   0  0  0  0  0  2  0  0  0  0  0  0
    0.5840   38.5540   23.9370 C   0  0  0  0  0  0  0  0  0  0  0  0
    1.4840   38.1180   24.8870 C   0  0  0  0  0  3  0  0  0  0  0  0
    2.8460   38.4010   24.8000 C   0  0  0  0  0  3  0  0  0  0  0  0
    3.2780   39.1500   23.7130 C   0  0  0  0  0  3  0  0  0  0  0  0
    2.4120   39.6080   22.7400 C   0  0  0  0  0  0  0  0  0  0  0  0
    2.8580   40.3480   21.6700 C   0  0  0  0  0  3  0  0  0  0  0  0
    1.9680   40.7860   20.7230 C   0  0  0  0  0  3  0  0  0  0  0  0
    0.6230   40.5110   20.7970 C   0  0  0  0  0  3  0  0  0  0  0  0
    0.2010   39.7630   21.8870 C   0  0  0  0  0  3  0  0  0  0  0  0
    1.0500   39.2960   22.8700 C   0  0  0  0  0  0  0  0  0  0  0  0
  8  7  1  0
  7  6  2  0
  7  9  1  0
  6  5  1  0
 29 30  2  0
 29 28  1  0
 30 31  1  0
 20 21  1  0
  9 10  2  0
  5  4  2  0
 21 19  1  0
 28 27  2  0
 31 32  2  0
 10  4  1  0
 10  1  1  0
  4  3  1  0
 27 32  1  0
 27 26  1  0
 19 15  1  0
 32 23  1  0
 18 17  1  0
 15 17  1  0
 15 16  2  0
 17 14  1  0
  1 14  1  0
  1  2  2  0
  3 22  1  0
  3  2  1  0
 26 25  2  0
 23 22  1  0
 23 24  2  0
  2 11  1  0
 25 24  1  0
 11 12  1  0
 11 13  2  0
M  RAD  8   5   2   6   2   9   2  14   3  18   2  20   2  21   3  22   3
M  CHG  2   3   1  12  -1
M  RAD  7  24   2  25   2  26   2  28   2  29   2  30   2  31   2
M  END
>  <_TriposChargeType>  (1) 
GASTEIGER

>  <SuCOS_score>  (1) 
0.2063513732460555

>  <Volume_score>  (1) 
0.31172703180212014

>  <Feature_score>  (1) 
0.10097571468999085

$$$$
