DOCK.F36.P4kp0/L1016_ligand.pdbt
     RDKit          3D

 29 32  0  0  0  0  0  0  0  0999 V2000
   -1.1510   35.0990   23.5010 C   0  0  0  0  0  0  0  0  0  0  0  0
   -0.6950   36.2970   24.0750 C   0  0  0  0  0  0  0  0  0  0  0  0
   -0.9750   37.3070   23.2790 N   0  0  0  0  0  4  0  0  0  0  0  0
   -1.6290   36.7520   22.1520 C   0  0  0  0  0  0  0  0  0  0  0  0
   -2.1440   37.3090   21.0180 C   0  0  0  0  0  3  0  0  0  0  0  0
   -2.7490   36.5650   20.0460 C   0  0  0  0  0  3  0  0  0  0  0  0
   -2.8450   35.1980   20.2110 C   0  0  0  0  0  3  0  0  0  0  0  0
   -2.3420   34.5930   21.3310 C   0  0  0  0  0  3  0  0  0  0  0  0
   -1.7300   35.3990   22.3020 C   0  0  0  0  0  0  0  0  0  0  0  0
   -0.0250   36.3400   25.3690 C   0  0  0  0  0  0  0  0  0  0  0  0
    0.2010   37.3940   25.9980 O   0  0  0  0  0  1  0  0  0  0  0  0
    0.3980   35.1680   25.9730 O   0  0  0  0  0  0  0  0  0  0  0  0
   -1.0350   33.7330   24.0580 C   0  0  0  0  0  2  0  0  0  0  0  0
    0.7980   30.8780   22.2080 C   0  0  0  0  0  1  0  0  0  0  0  0
   -0.2240   31.6230   22.9040 N   0  0  0  0  0  0  0  0  0  0  0  0
   -1.5030   31.0280   23.1570 C   0  0  0  0  0  1  0  0  0  0  0  0
    0.0100   32.9500   23.3390 C   0  0  0  0  0  0  0  0  0  0  0  0
    1.1190   33.5100   23.1240 O   0  0  0  0  0  0  0  0  0  0  0  0
   -0.8530   38.7120   23.3290 C   0  0  0  0  0  2  0  0  0  0  0  0
    0.1100   39.3670   22.3660 C   0  0  0  0  0  0  0  0  0  0  0  0
   -0.3930   39.9140   21.2140 C   0  0  0  0  0  3  0  0  0  0  0  0
    0.9990   40.3990   20.3660 S   0  0  0  0  0  0  0  0  0  0  0  0
    2.1930   39.9100   21.4740 C   0  0  0  0  0  0  0  0  0  0  0  0
    3.5910   40.0210   21.4900 C   0  0  0  0  0  3  0  0  0  0  0  0
    4.3210   39.5840   22.5680 C   0  0  0  0  0  3  0  0  0  0  0  0
    3.6010   39.0430   23.5990 C   0  0  0  0  0  0  0  0  0  0  0  0
    4.3030   38.6000   24.6770 F   0  0  0  0  0  0  0  0  0  0  0  0
    2.2420   38.9270   23.5980 C   0  0  0  0  0  3  0  0  0  0  0  0
    1.4650   39.3670   22.5000 C   0  0  0  0  0  0  0  0  0  0  0  0
  6  7  2  0
  6  5  1  0
  7  8  1  0
 22 21  1  0
 22 23  1  0
  5  4  2  0
 21 20  2  0
  8  9  2  0
 23 24  2  0
 23 29  1  0
 24 25  1  0
  4  9  1  0
  4  3  1  0
 14 15  1  0
  9  1  1  0
 20 29  1  0
 20 19  1  0
 29 28  2  0
 25 26  2  0
 15 16  1  0
 15 17  1  0
 18 17  2  0
  3 19  1  0
  3  2  1  0
 17 13  1  0
  1 13  1  0
  1  2  2  0
 28 26  1  0
 26 27  1  0
  2 10  1  0
 10 12  2  0
 10 11  1  0
M  RAD  8   5   2   6   2   7   2   8   2  13   3  14   2  16   2  19   3
M  CHG  2   3   1  11  -1
M  RAD  4  21   2  24   2  25   2  28   2
M  END
>  <_TriposChargeType>  (1) 
GASTEIGER

>  <SuCOS_score>  (1) 
0.26210973239037816

>  <Volume_score>  (1) 
0.3210340256296951

>  <Feature_score>  (1) 
0.20318543915106124

$$$$
