DOCK.F36.P4kp0/L1012_ligand.pdbt
     RDKit          3D

 30 32  0  0  0  0  0  0  0  0999 V2000
   -2.3310   36.6500   22.7470 N   0  0  0  0  0  0  0  0  0  0  0  0
   -3.2370   36.6640   22.2170 H   0  0  0  0  0  0  0  0  0  0  0  0
   -0.1540   33.0660   22.8870 C   0  0  0  0  0  0  0  0  0  0  0  0
    0.3560   34.1870   23.5060 C   0  0  0  0  0  3  0  0  0  0  0  0
   -0.3730   35.3690   23.4560 C   0  0  0  0  0  3  0  0  0  0  0  0
   -1.5820   35.4590   22.8130 C   0  0  0  0  0  0  0  0  0  0  0  0
   -2.0730   34.3280   22.2010 C   0  0  0  0  0  0  0  0  0  0  0  0
   -1.3820   33.1330   22.2260 C   0  0  0  0  0  3  0  0  0  0  0  0
   -3.6090   34.4000   21.3700 S   0  0  2  0  0  6  0  0  0  0  0  0
   -3.4200   35.2000   19.7880 C   0  0  0  0  0  1  0  0  0  0  0  0
   -4.6120   35.2360   22.1450 O   0  0  0  0  0  0  0  0  0  0  0  0
   -4.1540   33.0310   21.1080 O   0  0  0  0  0  0  0  0  0  0  0  0
    0.5830   31.8080   22.9180 C   0  0  0  0  0  0  0  0  0  0  0  0
    0.4580   30.9630   22.0000 O   0  0  0  0  0  0  0  0  0  0  0  0
    2.8390   31.6000   23.8000 C   0  0  0  0  0  1  0  0  0  0  0  0
    1.4320   31.5350   23.9670 O   0  0  0  0  0  0  0  0  0  0  0  0
   -1.7920   38.0670   23.5120 S   0  0  2  0  0  6  0  0  0  0  0  0
   -1.7090   37.8720   25.0000 O   0  0  0  0  0  0  0  0  0  0  0  0
   -2.8130   39.1590   23.2950 O   0  0  0  0  0  0  0  0  0  0  0  0
   -0.2040   38.5960   22.9950 C   0  0  0  0  0  0  0  0  0  0  0  0
    0.2090   39.3080   21.5090 S   0  0  0  0  0  0  0  0  0  0  0  0
    1.8820   39.5290   21.7560 C   0  0  0  0  0  0  0  0  0  0  0  0
    2.9120   40.0650   20.9700 C   0  0  0  0  0  3  0  0  0  0  0  0
    4.2110   40.1130   21.4520 C   0  0  0  0  0  3  0  0  0  0  0  0
    4.3900   39.6120   22.7140 C   0  0  0  0  0  0  0  0  0  0  0  0
    5.6720   39.6550   23.2020 F   0  0  0  0  0  0  0  0  0  0  0  0
    3.4050   39.0870   23.4980 C   0  0  0  0  0  3  0  0  0  0  0  0
    2.0770   39.0340   23.0140 C   0  0  0  0  0  0  0  0  0  0  0  0
    0.9910   38.5460   23.6590 C   0  0  0  0  0  0  0  0  0  0  0  0
    1.0000   37.9510   25.0660 C   0  0  0  0  0  1  0  0  0  0  0  0
  9 10  1  6
 23 24  1  0
 23 22  2  0
 12  9  2  0
  9 11  2  0
  9  7  1  0
 24 25  2  0
 21 22  1  0
 21 20  1  0
 22 28  1  0
 14 13  2  0
  7  8  1  0
  7  6  2  0
  2  1  1  0
  8  3  2  0
 25 26  1  0
 25 27  1  0
  1  6  1  0
 17  1  1  6
  6  5  1  0
  3 13  1  0
  3  4  1  0
 13 16  1  0
 20 17  1  0
 20 29  2  0
 28 27  2  0
 28 29  1  0
 19 17  2  0
  5  4  2  0
 17 18  2  0
 29 30  1  0
 15 16  1  0
M  RAD  8   4   2   5   2   8   2  10   2  15   2  23   2  24   2  27   2
M  RAD  1  30   2
M  END
>  <_TriposChargeType>  (1) 
GASTEIGER

>  <SuCOS_score>  (1) 
0.21335909747334536

>  <Volume_score>  (1) 
0.3034627724305786

>  <Feature_score>  (1) 
0.1232554225161121

$$$$
