DOCK.F36.P3n7o/L1002_ligand.pdbt
     RDKit          3D

 40 44  0  0  0  0  0  0  0  0999 V2000
   -3.0240   33.5480   23.2620 C   0  0  0  0  0  3  0  0  0  0  0  0
    2.2170   30.6140   23.6220 C   0  0  0  0  0  0  0  0  0  0  0  0
    2.6620   31.7350   24.2960 C   0  0  0  0  0  3  0  0  0  0  0  0
    1.7960   32.7730   24.4960 C   0  0  0  0  0  3  0  0  0  0  0  0
    0.4910   32.6820   24.0190 C   0  0  0  0  0  0  0  0  0  0  0  0
   -0.5860   33.5360   24.0640 C   0  0  0  0  0  0  0  0  0  0  0  0
   -1.6690   32.9600   23.4340 C   0  0  0  0  0  0  0  0  0  0  0  0
   -1.2680   31.7470   22.9960 N   0  0  0  0  0  0  0  0  0  0  0  0
    0.0320   31.5580   23.3400 C   0  0  0  0  0  0  0  0  0  0  0  0
    0.9230   30.5130   23.1450 C   0  0  0  0  0  3  0  0  0  0  0  0
   -1.8030   31.0170   22.4770 H   0  0  0  0  0  0  0  0  0  0  0  0
    3.1490   29.0010   22.0050 C   0  0  0  0  0  1  0  0  0  0  0  0
    3.2000   29.5100   23.4320 C   0  0  0  0  0  2  0  0  0  0  0  0
   -0.5660   34.8680   24.6920 C   0  0  0  0  0  2  0  0  0  0  0  0
   -0.3550   35.9860   23.7350 C   0  0  0  0  0  2  0  0  0  0  0  0
    0.6000   36.9200   24.2730 N   0  0  0  0  0  0  0  0  0  0  0  0
    0.8490   38.2030   23.7720 C   0  0  0  0  0  0  0  0  0  0  0  0
    1.8700   39.1240   24.4010 C   0  0  0  0  0  1  0  0  0  0  0  0
    0.2020   38.6030   22.7690 O   0  0  0  0  0  0  0  0  0  0  0  0
    1.1580   36.6030   25.1170 H   0  0  0  0  0  0  0  0  0  0  0  0
   -3.1520   34.2210   21.9250 C   0  0  0  0  0  0  0  0  0  0  0  0
   -2.4130   34.1030   20.8630 C   0  0  0  0  0  0  0  0  0  0  0  0
   -1.2830   33.2830   20.7330 O   0  0  0  0  0  0  0  0  0  0  0  0
   -2.8960   34.9550   19.7500 C   0  0  0  0  0  3  0  0  0  0  0  0
   -4.2150   35.4880   20.2000 C   0  0  0  0  0  2  0  0  0  0  0  0
   -4.2220   35.1680   21.6460 C   0  0  0  0  0  0  0  0  0  0  0  0
   -5.0460   35.6620   22.4780 O   0  0  0  0  0  0  0  0  0  0  0  0
   -1.2460   32.6890   19.9110 H   0  0  0  0  0  0  0  0  0  0  0  0
   -3.0210   34.1930   18.4850 C   0  0  0  0  0  0  0  0  0  0  0  0
   -4.1980   33.5440   18.1980 C   0  0  0  0  0  3  0  0  0  0  0  0
   -4.3570   32.8170   17.0260 C   0  0  0  0  0  3  0  0  0  0  0  0
   -3.3060   32.7450   16.1270 C   0  0  0  0  0  3  0  0  0  0  0  0
   -2.1240   33.3990   16.4170 C   0  0  0  0  0  3  0  0  0  0  0  0
   -1.9870   34.1150   17.5860 C   0  0  0  0  0  3  0  0  0  0  0  0
   -4.0510   32.4980   23.4350 C   0  0  0  0  0  0  0  0  0  0  0  0
   -4.4360   31.7770   22.3340 C   0  0  0  0  0  3  0  0  0  0  0  0
   -5.3850   30.7900   22.4290 C   0  0  0  0  0  3  0  0  0  0  0  0
   -5.9690   30.5110   23.6450 C   0  0  0  0  0  3  0  0  0  0  0  0
   -5.5670   31.2470   24.7370 C   0  0  0  0  0  3  0  0  0  0  0  0
   -4.6120   32.2390   24.6450 C   0  0  0  0  0  3  0  0  0  0  0  0
 32 33  2  0
 32 31  1  0
 33 34  1  0
 31 30  2  0
 34 29  2  0
 30 29  1  0
 29 24  1  0
 24 25  1  0
 24 22  1  0
 28 23  1  0
 25 26  1  0
 23 22  1  0
 22 21  2  0
 26 21  1  0
 26 27  2  0
 21  1  1  0
 12 13  1  0
 36 37  2  0
 36 35  1  0
 37 38  1  0
 11  8  1  0
 19 17  2  0
  8  9  1  0
  8  7  1  0
 10  9  1  0
 10  2  2  0
  1  7  1  0
  1 35  1  0
  9  5  2  0
 13  2  1  0
  7  6  2  0
 35 40  2  0
  2  3  1  0
 38 39  2  0
 15 16  1  0
 15 14  1  0
 17 16  1  0
 17 18  1  0
  5  6  1  0
  5  4  1  0
  6 14  1  0
 16 20  1  0
  3  4  2  0
 40 39  1  0
M  RAD  8   1   2   3   2   4   2  10   2  12   2  13   3  14   3  15   3
M  RAD  8  18   2  24   2  25   3  30   2  31   2  32   2  33   2  34   2
M  RAD  5  36   2  37   2  38   2  39   2  40   2
M  END
>  <_TriposChargeType>  (1) 
GASTEIGER

>  <SuCOS_score>  (1) 
0.09596888762473421

>  <Volume_score>  (1) 
0.18583776595744683

>  <Feature_score>  (1) 
0.006100009292021591

$$$$
