DOCK.F36.P3n7o/L1011_ligand.pdbt
     RDKit          3D

 30 33  0  0  0  0  0  0  0  0999 V2000
   -1.7520   36.9030   23.0730 C   0  0  0  0  0  0  0  0  0  0  0  0
   -2.2660   37.1620   21.8080 C   0  0  0  0  0  0  0  0  0  0  0  0
   -2.2020   35.9990   21.0860 N   0  0  0  0  0  4  0  0  0  0  0  0
   -1.6740   35.0220   21.8460 C   0  0  0  0  0  0  0  0  0  0  0  0
   -1.3960   33.6830   21.6350 C   0  0  0  0  0  3  0  0  0  0  0  0
   -0.8460   32.8730   22.6080 C   0  0  0  0  0  3  0  0  0  0  0  0
   -0.5720   33.4550   23.8310 C   0  0  0  0  0  0  0  0  0  0  0  0
   -0.0270   32.6710   24.7930 F   0  0  0  0  0  0  0  0  0  0  0  0
   -0.8420   34.7790   24.0560 C   0  0  0  0  0  3  0  0  0  0  0  0
   -1.3930   35.5700   23.0700 C   0  0  0  0  0  0  0  0  0  0  0  0
   -2.8060   38.4560   21.4380 C   0  0  0  0  0  0  0  0  0  0  0  0
   -2.2000   39.1990   20.6010 O   0  0  0  0  0  1  0  0  0  0  0  0
   -3.9870   38.9620   21.9560 O   0  0  0  0  0  0  0  0  0  0  0  0
   -1.6320   37.8280   24.2270 C   0  0  0  0  0  2  0  0  0  0  0  0
    2.0100   39.0930   24.4020 C   0  0  0  0  0  1  0  0  0  0  0  0
    0.6360   38.9710   23.9270 N   0  0  0  0  0  0  0  0  0  0  0  0
    0.2600   39.7790   22.8080 C   0  0  0  0  0  1  0  0  0  0  0  0
   -0.2300   38.0810   24.5890 C   0  0  0  0  0  0  0  0  0  0  0  0
    0.2150   37.4260   25.5910 O   0  0  0  0  0  0  0  0  0  0  0  0
   -2.6010   35.9260   19.6980 C   0  0  0  0  0  2  0  0  0  0  0  0
   -3.6400   34.8790   19.5320 C   0  0  0  0  0  0  0  0  0  0  0  0
   -4.6730   34.7820   20.4600 C   0  0  0  0  0  3  0  0  0  0  0  0
   -5.7240   33.8970   20.2690 C   0  0  0  0  0  3  0  0  0  0  0  0
   -5.7420   33.1090   19.1480 C   0  0  0  0  0  3  0  0  0  0  0  0
   -4.7510   33.1590   18.2000 C   0  0  0  0  0  0  0  0  0  0  0  0
   -4.7940   32.2970   17.0970 C   0  0  0  0  0  3  0  0  0  0  0  0
   -3.7490   32.3520   16.2010 C   0  0  0  0  0  3  0  0  0  0  0  0
   -2.6920   33.2020   16.3480 C   0  0  0  0  0  3  0  0  0  0  0  0
   -2.6970   34.0500   17.4730 C   0  0  0  0  0  3  0  0  0  0  0  0
   -3.7050   34.0500   18.4050 C   0  0  0  0  0  0  0  0  0  0  0  0
 27 28  2  0
 27 26  1  0
 28 29  1  0
 26 25  2  0
 29 30  2  0
 25 30  1  0
 25 24  1  0
 30 21  1  0
 24 23  2  0
 21 20  1  0
 21 22  2  0
 20  3  1  0
 23 22  1  0
 12 11  1  0
  3  2  1  0
  3  4  1  0
 11  2  1  0
 11 13  2  0
  5  4  2  0
  5  6  1  0
  2  1  2  0
  4 10  1  0
  6  7  2  0
 17 16  1  0
 10  1  1  0
 10  9  2  0
  1 14  1  0
  7  9  1  0
  7  8  1  0
 16 15  1  0
 16 18  1  0
 14 18  1  0
 18 19  2  0
M  RAD  8   5   2   6   2   9   2  14   3  15   2  17   2  20   3  22   2
M  CHG  2   3   1  12  -1
M  RAD  6  23   2  24   2  26   2  27   2  28   2  29   2
M  END
>  <_TriposChargeType>  (1) 
GASTEIGER

>  <SuCOS_score>  (1) 
0.16103604184916093

>  <Volume_score>  (1) 
0.3157313300927972

>  <Feature_score>  (1) 
0.006340753605524646

$$$$
