DOCK.F36.P3n7o/L1017_ligand.pdbt
     RDKit          3D

 31 34  0  0  0  0  0  0  0  0999 V2000
   -1.8150   37.5740   23.0700 C   0  0  0  0  0  0  0  0  0  0  0  0
   -2.6900   37.5420   22.0100 C   0  0  0  0  0  0  0  0  0  0  0  0
   -2.9240   36.3020   21.5960 N   0  0  0  0  0  4  0  0  0  0  0  0
   -2.2090   35.4820   22.3670 C   0  0  0  0  0  0  0  0  0  0  0  0
   -2.0210   34.1030   22.4240 C   0  0  0  0  0  3  0  0  0  0  0  0
   -1.2170   33.4510   23.3110 C   0  0  0  0  0  3  0  0  0  0  0  0
   -0.5110   34.2190   24.2460 C   0  0  0  0  0  0  0  0  0  0  0  0
    0.3070   33.6200   25.1200 F   0  0  0  0  0  0  0  0  0  0  0  0
   -0.6760   35.5910   24.2270 C   0  0  0  0  0  3  0  0  0  0  0  0
   -1.4940   36.2340   23.3240 C   0  0  0  0  0  0  0  0  0  0  0  0
   -3.3090   38.8080   21.4890 C   0  0  0  0  0  0  0  0  0  0  0  0
   -2.6000   39.5680   20.8000 O   0  0  0  0  0  1  0  0  0  0  0  0
   -4.6000   39.1990   21.7310 O   0  0  0  0  0  0  0  0  0  0  0  0
   -1.0600   38.6970   23.6000 C   0  0  0  0  0  2  0  0  0  0  0  0
   -0.6470   39.7670   22.7670 N   0  0  0  0  0  0  0  0  0  0  0  0
   -0.9560   40.7100   22.8680 H   0  0  0  0  0  0  0  0  0  0  0  0
    1.6850   40.3040   21.1970 C   0  0  0  0  0  1  0  0  0  0  0  0
    1.1010   39.6550   22.7350 S   0  0  2  0  0  6  0  0  0  0  0  0
    1.5820   38.3060   23.0000 O   0  0  0  0  0  0  0  0  0  0  0  0
    1.6320   40.6000   23.8440 O   0  0  0  0  0  0  0  0  0  0  0  0
   -3.8930   35.8990   20.6100 C   0  0  0  0  0  2  0  0  0  0  0  0
   -3.3090   35.1880   19.4700 C   0  0  0  0  0  0  0  0  0  0  0  0
   -2.0980   35.4690   18.9470 C   0  0  0  0  0  3  0  0  0  0  0  0
   -1.6000   34.8000   17.8580 C   0  0  0  0  0  3  0  0  0  0  0  0
   -2.3380   33.8010   17.2500 C   0  0  0  0  0  3  0  0  0  0  0  0
   -3.6030   33.5110   17.7950 C   0  0  0  0  0  0  0  0  0  0  0  0
   -4.3480   32.5130   17.2060 C   0  0  0  0  0  3  0  0  0  0  0  0
   -5.5820   32.2010   17.7200 C   0  0  0  0  0  3  0  0  0  0  0  0
   -6.0930   32.8540   18.8090 C   0  0  0  0  0  3  0  0  0  0  0  0
   -5.3320   33.8240   19.3670 C   0  0  0  0  0  3  0  0  0  0  0  0
   -4.0550   34.1960   18.8760 C   0  0  0  0  0  0  0  0  0  0  0  0
 27 28  2  0
 27 26  1  0
 25 26  2  0
 25 24  1  0
 28 29  1  0
 26 31  1  0
 24 23  2  0
 29 30  2  0
 31 30  1  0
 31 22  2  0
 23 22  1  0
 22 21  1  0
 21  3  1  0
 12 11  1  0
 18 17  1  6
 11 13  2  0
 11  2  1  0
  3  2  1  0
  3  4  1  0
  2  1  2  0
  4  5  2  0
  4 10  1  0
  5  6  1  0
 18 15  1  0
 18 19  2  0
 18 20  2  0
 15 16  1  0
 15 14  1  0
  1 10  1  0
  1 14  1  0
  6  7  2  0
 10  9  2  0
  9  7  1  0
  7  8  1  0
M  RAD  8   5   2   6   2   9   2  14   3  17   2  21   3  23   2  24   2
M  CHG  2   3   1  12  -1
M  RAD  5  25   2  27   2  28   2  29   2  30   2
M  END
>  <_TriposChargeType>  (1) 
GASTEIGER

>  <SuCOS_score>  (1) 
0.17819570370763493

>  <Volume_score>  (1) 
0.34096438840964394

>  <Feature_score>  (1) 
0.01542701900562593

$$$$
