DOCK.F36.P3n7o/L1014_ligand.pdbt
     RDKit          3D

 24 27  0  0  0  0  0  0  0  0999 V2000
   -3.0060   35.8030   19.6620 C   0  0  0  0  0  2  0  0  0  0  0  0
   -1.6170   34.6720   17.8230 C   0  0  0  0  0  1  0  0  0  0  0  0
   -2.7930   33.8780   17.5240 C   0  0  0  0  0  0  0  0  0  0  0  0
   -2.8130   32.9710   16.4460 C   0  0  0  0  0  3  0  0  0  0  0  0
   -3.8560   32.1300   16.1840 C   0  0  0  0  0  3  0  0  0  0  0  0
   -4.9420   32.1610   17.0070 C   0  0  0  0  0  3  0  0  0  0  0  0
   -4.9760   33.0340   18.0830 C   0  0  0  0  0  0  0  0  0  0  0  0
   -6.0590   33.0040   18.9190 C   0  0  0  0  0  3  0  0  0  0  0  0
   -6.0820   33.8220   20.0020 C   0  0  0  0  0  3  0  0  0  0  0  0
   -5.0550   34.6550   20.2460 C   0  0  0  0  0  3  0  0  0  0  0  0
   -3.8940   34.7490   19.4200 C   0  0  0  0  0  0  0  0  0  0  0  0
   -3.9030   33.9020   18.3470 C   0  0  0  0  0  0  0  0  0  0  0  0
   -2.8980   35.9720   21.1600 N   0  0  0  0  0  0  0  0  0  0  0  0
   -3.2480   37.0330   21.8980 C   0  0  0  0  0  0  0  0  0  0  0  0
   -2.8810   36.7520   23.2370 C   0  0  0  0  0  3  0  0  0  0  0  0
   -2.3080   35.5140   23.2910 C   0  0  0  0  0  0  0  0  0  0  0  0
   -1.7530   34.7470   24.3170 C   0  0  0  0  0  3  0  0  0  0  0  0
   -1.2100   33.5110   24.0700 C   0  0  0  0  0  3  0  0  0  0  0  0
   -1.2330   33.0550   22.7760 C   0  0  0  0  0  3  0  0  0  0  0  0
   -1.7860   33.8200   21.7610 C   0  0  0  0  0  3  0  0  0  0  0  0
   -2.3350   35.0600   21.9800 C   0  0  0  0  0  0  0  0  0  0  0  0
   -3.8810   38.2650   21.5080 C   0  0  0  0  0  0  0  0  0  0  0  0
   -3.1430   39.1930   21.0000 O   0  0  0  0  0  1  0  0  0  0  0  0
   -5.1990   38.5980   21.6010 O   0  0  0  0  0  0  0  0  0  0  0  0
  5  4  1  0
  5  6  2  0
  4  3  2  0
  6  7  1  0
  3  2  1  0
  3 12  1  0
  7 12  2  0
  7  8  1  0
 12 11  1  0
  8  9  2  0
 11  1  1  0
 11 10  2  0
  1 13  1  0
  9 10  1  0
 23 22  1  0
 13 14  1  0
 13 21  1  0
 22 24  2  0
 22 14  1  0
 20 21  2  0
 20 19  1  0
 14 15  2  0
 21 16  1  0
 19 18  2  0
 15 16  1  0
 16 17  2  0
 18 17  1  0
M  RAD  8   1   3   2   2   4   2   5   2   6   2   8   2   9   2  10   2
M  CHG  1  23  -1
M  RAD  5  15   2  17   2  18   2  19   2  20   2
M  END
>  <_TriposChargeType>  (1) 
GASTEIGER

>  <SuCOS_score>  (1) 
0.14701043254767976

>  <Volume_score>  (1) 
0.20724412937527692

>  <Feature_score>  (1) 
0.08677673572008257

$$$$
