DOCK.F36.P3n7o/L1016_ligand.pdbt
     RDKit          3D

 29 32  0  0  0  0  0  0  0  0999 V2000
   -1.6250   37.7270   22.8430 C   0  0  0  0  0  0  0  0  0  0  0  0
   -2.6710   37.8160   21.9100 C   0  0  0  0  0  0  0  0  0  0  0  0
   -2.9530   36.6190   21.4420 N   0  0  0  0  0  4  0  0  0  0  0  0
   -2.0640   35.7230   22.0850 C   0  0  0  0  0  0  0  0  0  0  0  0
   -1.8940   34.3720   22.0010 C   0  0  0  0  0  3  0  0  0  0  0  0
   -0.9580   33.7040   22.7360 C   0  0  0  0  0  3  0  0  0  0  0  0
   -0.1490   34.4170   23.5980 C   0  0  0  0  0  3  0  0  0  0  0  0
   -0.2810   35.7740   23.7170 C   0  0  0  0  0  3  0  0  0  0  0  0
   -1.2570   36.4160   22.9410 C   0  0  0  0  0  0  0  0  0  0  0  0
   -3.3070   39.0810   21.5640 C   0  0  0  0  0  0  0  0  0  0  0  0
   -2.8000   39.9270   20.8000 O   0  0  0  0  0  1  0  0  0  0  0  0
   -4.5490   39.4000   22.0880 O   0  0  0  0  0  0  0  0  0  0  0  0
   -0.9980   38.8330   23.6000 C   0  0  0  0  0  2  0  0  0  0  0  0
    2.6660   39.8000   22.8450 C   0  0  0  0  0  1  0  0  0  0  0  0
    1.4920   39.3160   23.5320 N   0  0  0  0  0  0  0  0  0  0  0  0
    1.5990   38.8000   24.8650 C   0  0  0  0  0  1  0  0  0  0  0  0
    0.2230   39.3310   22.9050 C   0  0  0  0  0  0  0  0  0  0  0  0
    0.0930   39.7670   21.7300 O   0  0  0  0  0  0  0  0  0  0  0  0
   -3.9170   36.0600   20.5750 C   0  0  0  0  0  2  0  0  0  0  0  0
   -3.4220   35.1820   19.4480 C   0  0  0  0  0  0  0  0  0  0  0  0
   -2.2000   35.4630   18.8930 C   0  0  0  0  0  3  0  0  0  0  0  0
   -2.0920   34.3640   17.6000 S   0  0  0  0  0  0  0  0  0  0  0  0
   -3.5820   33.5650   17.7790 C   0  0  0  0  0  0  0  0  0  0  0  0
   -4.1850   32.4950   17.1010 C   0  0  0  0  0  3  0  0  0  0  0  0
   -5.4000   32.0000   17.5050 C   0  0  0  0  0  3  0  0  0  0  0  0
   -5.9660   32.6130   18.5900 C   0  0  0  0  0  0  0  0  0  0  0  0
   -7.1720   32.1400   19.0080 F   0  0  0  0  0  0  0  0  0  0  0  0
   -5.3940   33.6540   19.2590 C   0  0  0  0  0  3  0  0  0  0  0  0
   -4.1430   34.1870   18.8630 C   0  0  0  0  0  0  0  0  0  0  0  0
 24 25  1  0
 24 23  2  0
 25 26  2  0
 22 23  1  0
 22 21  1  0
 23 29  1  0
 26 27  1  0
 26 28  1  0
 29 28  2  0
 29 20  1  0
 21 20  2  0
 20 19  1  0
 19  3  1  0
 11 10  1  0
  3  2  1  0
  3  4  1  0
 10  2  1  0
 10 12  2  0
 18 17  2  0
  2  1  2  0
  5  4  2  0
  5  6  1  0
  4  9  1  0
  6  7  2  0
  1  9  1  0
  1 13  1  0
 14 15  1  0
 17 15  1  0
 17 13  1  0
  9  8  2  0
 15 16  1  0
  7  8  1  0
M  RAD  8   5   2   6   2   7   2   8   2  13   3  14   2  16   2  19   3
M  CHG  2   3   1  11  -1
M  RAD  4  21   2  24   2  25   2  28   2
M  END
>  <_TriposChargeType>  (1) 
GASTEIGER

>  <SuCOS_score>  (1) 
0.1926255798623193

>  <Volume_score>  (1) 
0.36720477664750106

>  <Feature_score>  (1) 
0.01804638307713754

$$$$
