DOCK.F36.P1t31/L1003_ligand.pdbt
     RDKit          3D

 32 35  0  0  0  0  0  0  0  0999 V2000
   -2.9670   38.2010   21.7190 N   0  0  0  0  0  0  0  0  0  0  0  0
   -2.7550   39.0660   21.1320 H   0  0  0  0  0  0  0  0  0  0  0  0
   -3.9900   37.3720   21.2620 C   0  0  0  0  0  0  0  0  0  0  0  0
   -5.3240   37.5750   21.5800 C   0  0  0  0  0  3  0  0  0  0  0  0
   -6.3230   36.7320   21.1220 C   0  0  0  0  0  3  0  0  0  0  0  0
   -6.0210   35.6510   20.3250 C   0  0  0  0  0  0  0  0  0  0  0  0
   -4.7050   35.4350   20.0000 C   0  0  0  0  0  3  0  0  0  0  0  0
   -3.7060   36.2850   20.4640 C   0  0  0  0  0  0  0  0  0  0  0  0
   -7.0250   34.7300   19.8130 C   0  0  0  0  0  0  0  0  0  0  0  0
   -8.0610   35.1640   19.0010 C   0  0  0  0  0  3  0  0  0  0  0  0
   -9.0280   34.3190   18.5000 C   0  0  0  0  0  3  0  0  0  0  0  0
   -8.9610   33.0000   18.8190 N   0  0  0  0  0  0  0  0  0  0  0  0
   -7.9700   32.5560   19.6030 C   0  0  0  0  0  3  0  0  0  0  0  0
   -6.9940   33.3840   20.1130 C   0  0  0  0  0  3  0  0  0  0  0  0
   -2.3280   35.9570   20.0620 C   0  0  2  0  0  0  0  0  0  0  0  0
   -1.6990   35.0780   20.8990 F   0  0  0  0  0  0  0  0  0  0  0  0
   -1.6050   37.1540   19.9460 F   0  0  0  0  0  0  0  0  0  0  0  0
   -2.2940   35.4000   18.8000 F   0  0  0  0  0  0  0  0  0  0  0  0
   -1.9990   38.0010   23.1120 S   0  0  1  0  0  6  0  0  0  0  0  0
   -2.6110   38.7100   24.3000 O   0  0  0  0  0  0  0  0  0  0  0  0
   -1.9600   36.5330   23.5260 O   0  0  0  0  0  0  0  0  0  0  0  0
    0.7330   37.7170   24.9630 C   0  0  0  0  0  1  0  0  0  0  0  0
    0.7820   38.4260   23.6180 C   0  0  0  0  0  0  0  0  0  0  0  0
   -0.3490   38.5210   22.8760 C   0  0  0  0  0  0  0  0  0  0  0  0
    0.1790   39.3670   21.4770 S   0  0  0  0  0  0  0  0  0  0  0  0
    1.8180   39.5700   21.8840 C   0  0  0  0  0  0  0  0  0  0  0  0
    2.8880   40.1760   21.2240 C   0  0  0  0  0  3  0  0  0  0  0  0
    4.1440   40.2010   21.7930 C   0  0  0  0  0  3  0  0  0  0  0  0
    4.2430   39.5960   23.0280 C   0  0  0  0  0  0  0  0  0  0  0  0
    5.4850   39.6150   23.6010 F   0  0  0  0  0  0  0  0  0  0  0  0
    3.2010   39.0000   23.6830 C   0  0  0  0  0  3  0  0  0  0  0  0
    1.9160   38.9730   23.1040 C   0  0  0  0  0  0  0  0  0  0  0  0
 11 12  1  0
 11 10  2  0
 15 18  1  6
 12 13  2  0
 10  9  1  0
 13 14  1  0
  9 14  2  0
  9  6  1  0
 17 15  1  0
  7  6  2  0
  7  8  1  0
 15  8  1  0
 15 16  1  0
  6  5  1  0
  8  3  2  0
  5  4  2  0
  2  1  1  0
 27 28  2  0
 27 26  1  0
  3  4  1  0
  3  1  1  0
 25 26  1  0
 25 24  1  0
 19  1  1  6
 28 29  1  0
 26 32  2  0
 24 19  1  0
 24 23  2  0
 29 30  1  0
 29 31  2  0
 32 23  1  0
 32 31  1  0
 19 21  2  0
 19 20  2  0
 23 22  1  0
M  RAD  8   4   2   5   2   7   2  10   2  11   2  13   2  14   2  22   2
M  RAD  3  27   2  28   2  31   2
M  END
>  <_TriposChargeType>  (1) 
GASTEIGER

>  <SuCOS_score>  (1) 
0.2770753313838208

>  <Volume_score>  (1) 
0.3824833702882483

>  <Feature_score>  (1) 
0.17166729247939325

$$$$
