DOCK.F36.P1t31/L1005_ligand.pdbt
     RDKit          3D

 31 34  0  0  0  0  0  0  0  0999 V2000
   -4.3370   38.8440   21.5400 C   0  0  0  0  0  0  0  0  0  0  0  0
   -3.1150   39.5500   21.5980 C   0  0  0  0  0  0  0  0  0  0  0  0
   -2.1260   38.7800   21.1680 N   0  0  0  0  0  4  0  0  0  0  0  0
   -2.6670   37.5480   20.8200 C   0  0  0  0  0  0  0  0  0  0  0  0
   -1.9970   36.4370   20.3550 C   0  0  0  0  0  3  0  0  0  0  0  0
   -2.7570   35.2840   20.1090 C   0  0  0  0  0  3  0  0  0  0  0  0
   -4.1120   35.3010   20.3320 C   0  0  0  0  0  0  0  0  0  0  0  0
   -4.8730   34.1790   20.0920 F   0  0  0  0  0  0  0  0  0  0  0  0
   -4.7410   36.4410   20.8000 C   0  0  0  0  0  3  0  0  0  0  0  0
   -4.0260   37.5990   21.0540 C   0  0  0  0  0  0  0  0  0  0  0  0
   -3.0720   40.9200   22.1100 C   0  0  0  0  0  0  0  0  0  0  0  0
   -3.4780   41.2170   23.2870 O   0  0  0  0  0  1  0  0  0  0  0  0
   -2.6000   42.0000   21.4000 O   0  0  0  0  0  0  0  0  0  0  0  0
   -5.6290   39.3930   21.9610 C   0  0  0  0  0  2  0  0  0  0  0  0
   -7.0900   40.3760   20.1610 C   0  0  0  0  0  0  0  0  0  0  0  0
   -7.4330   39.2070   19.8020 O   0  0  0  0  0  0  0  0  0  0  0  0
   -6.1810   40.4850   21.2460 N   0  0  0  0  0  0  0  0  0  0  0  0
   -5.9290   41.4970   21.5060 H   0  0  0  0  0  0  0  0  0  0  0  0
   -8.6020   41.4000   18.5170 C   0  0  0  0  0  1  0  0  0  0  0  0
   -7.5980   41.4920   19.5010 O   0  0  0  0  0  0  0  0  0  0  0  0
   -0.7030   39.0640   21.0920 C   0  0  0  0  0  2  0  0  0  0  0  0
   -0.0420   38.8090   22.3570 C   0  0  0  0  0  0  0  0  0  0  0  0
   -0.7130   38.1760   23.3930 C   0  0  0  0  0  3  0  0  0  0  0  0
   -0.1400   37.7990   24.5860 C   0  0  0  0  0  3  0  0  0  0  0  0
    1.2000   38.0820   24.7390 C   0  0  0  0  0  3  0  0  0  0  0  0
    1.9090   38.7040   23.7610 C   0  0  0  0  0  0  0  0  0  0  0  0
    3.2220   39.0000   24.0010 C   0  0  0  0  0  3  0  0  0  0  0  0
    3.9840   39.6800   23.0570 C   0  0  0  0  0  3  0  0  0  0  0  0
    3.3690   40.0500   21.8660 C   0  0  0  0  0  3  0  0  0  0  0  0
    2.0460   39.7540   21.6170 C   0  0  0  0  0  3  0  0  0  0  0  0
    1.2970   39.0800   22.5490 C   0  0  0  0  0  0  0  0  0  0  0  0
 19 20  1  0
 20 15  1  0
 16 15  2  0
  8  7  1  0
  6  7  2  0
  6  5  1  0
 15 17  1  0
  7  9  1  0
  5  4  2  0
  9 10  2  0
  4 10  1  0
  4  3  1  0
 10  1  1  0
 21  3  1  0
 21 22  1  0
  3  2  1  0
 17 18  1  0
 17 14  1  0
 13 11  2  0
  1  2  2  0
  1 14  1  0
  2 11  1  0
 30 29  1  0
 30 31  2  0
 29 28  2  0
 11 12  1  0
 22 31  1  0
 22 23  2  0
 31 26  1  0
 28 27  1  0
 23 24  1  0
 26 27  2  0
 26 25  1  0
 24 25  2  0
M  RAD  8   5   2   6   2   9   2  14   3  19   2  21   3  23   2  24   2
M  CHG  2   3   1  12  -1
M  RAD  5  25   2  27   2  28   2  29   2  30   2
M  END
>  <_TriposChargeType>  (1) 
GASTEIGER

>  <SuCOS_score>  (1) 
0.3357616370908684

>  <Volume_score>  (1) 
0.49121644017235666

>  <Feature_score>  (1) 
0.18030683400938022

$$$$
