DOCK.F36.P1t31/L1016_ligand.pdbt
     RDKit          3D

 29 32  0  0  0  0  0  0  0  0999 V2000
   -5.0650   37.2800   21.4120 C   0  0  0  0  0  0  0  0  0  0  0  0
   -4.0680   38.2070   21.7560 C   0  0  0  0  0  0  0  0  0  0  0  0
   -2.9280   37.8650   21.1930 N   0  0  0  0  0  4  0  0  0  0  0  0
   -3.1880   36.6770   20.4650 C   0  0  0  0  0  0  0  0  0  0  0  0
   -2.3980   35.8780   19.6910 C   0  0  0  0  0  3  0  0  0  0  0  0
   -2.8740   34.7610   19.0660 C   0  0  0  0  0  3  0  0  0  0  0  0
   -4.2030   34.4240   19.2200 C   0  0  0  0  0  3  0  0  0  0  0  0
   -5.0360   35.1950   19.9860 C   0  0  0  0  0  3  0  0  0  0  0  0
   -4.5010   36.3320   20.6080 C   0  0  0  0  0  0  0  0  0  0  0  0
   -4.3290   39.3600   22.6080 C   0  0  0  0  0  0  0  0  0  0  0  0
   -5.4000   40.0000   22.6000 O   0  0  0  0  0  1  0  0  0  0  0  0
   -3.3620   39.8010   23.4960 O   0  0  0  0  0  0  0  0  0  0  0  0
   -6.4830   37.2860   21.8340 C   0  0  0  0  0  2  0  0  0  0  0  0
   -9.1380   35.9680   19.3540 C   0  0  0  0  0  1  0  0  0  0  0  0
   -8.2630   36.0660   20.4980 N   0  0  0  0  0  0  0  0  0  0  0  0
   -8.2740   35.0430   21.5030 C   0  0  0  0  0  1  0  0  0  0  0  0
   -7.3900   37.1690   20.6570 C   0  0  0  0  0  0  0  0  0  0  0  0
   -7.3620   38.0930   19.8000 O   0  0  0  0  0  0  0  0  0  0  0  0
   -1.6310   38.4130   21.0930 C   0  0  0  0  0  2  0  0  0  0  0  0
   -0.6880   38.1980   22.2550 C   0  0  0  0  0  0  0  0  0  0  0  0
   -1.0940   37.3840   23.2810 C   0  0  0  0  0  3  0  0  0  0  0  0
    0.1610   37.5270   24.4190 S   0  0  0  0  0  0  0  0  0  0  0  0
    1.1800   38.6040   23.5860 C   0  0  0  0  0  0  0  0  0  0  0  0
    2.4380   39.1520   23.8760 C   0  0  0  0  0  3  0  0  0  0  0  0
    3.0760   39.9670   22.9730 C   0  0  0  0  0  3  0  0  0  0  0  0
    2.4100   40.2010   21.8000 C   0  0  0  0  0  0  0  0  0  0  0  0
    3.0210   41.0070   20.8910 F   0  0  0  0  0  0  0  0  0  0  0  0
    1.1860   39.6750   21.5050 C   0  0  0  0  0  3  0  0  0  0  0  0
    0.5040   38.8340   22.4170 C   0  0  0  0  0  0  0  0  0  0  0  0
  6  7  2  0
  6  5  1  0
  7  8  1  0
 14 15  1  0
  5  4  2  0
 18 17  2  0
  8  9  2  0
  4  9  1  0
  4  3  1  0
 15 17  1  0
 15 16  1  0
  9  1  1  0
 17 13  1  0
 27 26  1  0
 19  3  1  0
 19 20  1  0
  3  2  1  0
  1  2  2  0
  1 13  1  0
 28 26  1  0
 28 29  2  0
  2 10  1  0
 26 25  2  0
 20 29  1  0
 20 21  2  0
 29 23  1  0
 11 10  1  0
 10 12  2  0
 25 24  1  0
 21 22  1  0
 23 24  2  0
 23 22  1  0
M  RAD  8   5   2   6   2   7   2   8   2  13   3  14   2  16   2  19   3
M  CHG  2   3   1  11  -1
M  RAD  4  21   2  24   2  25   2  28   2
M  END
>  <_TriposChargeType>  (1) 
GASTEIGER

>  <SuCOS_score>  (1) 
0.2312563135053632

>  <Volume_score>  (1) 
0.3901817375886525

>  <Feature_score>  (1) 
0.07233088942207391

$$$$
