DOCK.F36.P1t31/L1012_ligand.pdbt
     RDKit          3D

 30 32  0  0  0  0  0  0  0  0999 V2000
   -1.0040   37.1910   21.9690 N   0  0  0  0  0  0  0  0  0  0  0  0
   -0.0710   37.1150   21.4930 H   0  0  0  0  0  0  0  0  0  0  0  0
   -3.0600   40.8440   21.7880 C   0  0  0  0  0  0  0  0  0  0  0  0
   -3.7580   39.6710   21.5980 C   0  0  0  0  0  3  0  0  0  0  0  0
   -3.0680   38.4650   21.6620 C   0  0  0  0  0  3  0  0  0  0  0  0
   -1.7200   38.4030   21.9080 C   0  0  0  0  0  0  0  0  0  0  0  0
   -1.0430   39.5870   22.0950 C   0  0  0  0  0  0  0  0  0  0  0  0
   -1.6870   40.8070   22.0400 C   0  0  0  0  0  3  0  0  0  0  0  0
    0.6760   39.5530   22.4100 S   0  0  2  0  0  6  0  0  0  0  0  0
    1.5750   40.2000   21.0110 C   0  0  0  0  0  1  0  0  0  0  0  0
    1.1690   38.1300   22.6010 O   0  0  0  0  0  0  0  0  0  0  0  0
    1.0340   40.4000   23.5910 O   0  0  0  0  0  0  0  0  0  0  0  0
   -3.7500   42.1270   21.7280 C   0  0  0  0  0  0  0  0  0  0  0  0
   -3.4200   43.0000   20.8900 O   0  0  0  0  0  0  0  0  0  0  0  0
   -5.4250   43.6600   22.6000 C   0  0  0  0  0  1  0  0  0  0  0  0
   -4.7810   42.3950   22.6000 O   0  0  0  0  0  0  0  0  0  0  0  0
   -1.6260   35.8490   22.8010 S   0  0  2  0  0  6  0  0  0  0  0  0
   -1.8670   36.1820   24.2470 O   0  0  0  0  0  0  0  0  0  0  0  0
   -0.5910   34.7480   22.7980 O   0  0  0  0  0  0  0  0  0  0  0  0
   -3.1510   35.2620   22.1700 C   0  0  0  0  0  0  0  0  0  0  0  0
   -4.5610   34.9110   23.0500 S   0  0  0  0  0  0  0  0  0  0  0  0
   -5.5740   34.4090   21.7730 C   0  0  0  0  0  0  0  0  0  0  0  0
   -6.9020   33.9630   21.7130 C   0  0  0  0  0  3  0  0  0  0  0  0
   -7.4710   33.6150   20.4970 C   0  0  0  0  0  3  0  0  0  0  0  0
   -6.6540   33.7420   19.4050 C   0  0  0  0  0  0  0  0  0  0  0  0
   -7.2060   33.4010   18.1970 F   0  0  0  0  0  0  0  0  0  0  0  0
   -5.3600   34.1740   19.4400 C   0  0  0  0  0  3  0  0  0  0  0  0
   -4.7710   34.5310   20.6760 C   0  0  0  0  0  0  0  0  0  0  0  0
   -3.5080   34.9740   20.8810 C   0  0  0  0  0  0  0  0  0  0  0  0
   -2.4610   35.1770   19.7890 C   0  0  0  0  0  1  0  0  0  0  0  0
 26 25  1  0
 25 27  2  0
 25 24  1  0
 27 28  1  0
 30 29  1  0
 24 23  2  0
 28 29  1  0
 28 22  2  0
 29 20  2  0
 14 13  2  0
  9 10  1  6
  2  1  1  0
  4  5  1  0
  4  3  2  0
  5  6  2  0
 23 22  1  0
 13  3  1  0
 13 16  1  0
 22 21  1  0
  3  8  1  0
  6  1  1  0
  6  7  1  0
 17  1  1  6
  8  7  2  0
  7  9  1  0
 20 17  1  0
 20 21  1  0
  9 11  2  0
  9 12  2  0
 16 15  1  0
 19 17  2  0
 17 18  2  0
M  RAD  8   4   2   5   2   8   2  10   2  15   2  23   2  24   2  27   2
M  RAD  1  30   2
M  END
>  <_TriposChargeType>  (1) 
GASTEIGER

>  <SuCOS_score>  (1) 
0.20343030772254947

>  <Volume_score>  (1) 
0.3468981532677209

>  <Feature_score>  (1) 
0.05996246217737804

$$$$
