DOCK.F40.P4k69/L1002_ligand.pdbt
     RDKit          3D

 40 44  0  0  0  0  0  0  0  0999 V2000
   -2.5760   37.8670   22.7880 C   0  0  0  0  0  3  0  0  0  0  0  0
    2.9090   40.0170   21.5610 C   0  0  0  0  0  0  0  0  0  0  0  0
    3.1800   39.7510   22.8890 C   0  0  0  0  0  3  0  0  0  0  0  0
    2.1960   39.2150   23.6700 C   0  0  0  0  0  3  0  0  0  0  0  0
    0.9450   38.9500   23.1160 C   0  0  0  0  0  0  0  0  0  0  0  0
   -0.2160   38.4260   23.6320 C   0  0  0  0  0  0  0  0  0  0  0  0
   -1.1820   38.3690   22.6490 C   0  0  0  0  0  0  0  0  0  0  0  0
   -0.6230   38.8580   21.5210 N   0  0  0  0  0  0  0  0  0  0  0  0
    0.6620   39.2130   21.7810 C   0  0  0  0  0  0  0  0  0  0  0  0
    1.6710   39.7570   21.0000 C   0  0  0  0  0  3  0  0  0  0  0  0
   -1.0360   38.9750   20.5700 H   0  0  0  0  0  0  0  0  0  0  0  0
    4.2170   39.8000   19.4800 C   0  0  0  0  0  1  0  0  0  0  0  0
    4.0180   40.6000   20.7530 C   0  0  0  0  0  2  0  0  0  0  0  0
   -0.3880   37.9970   25.0300 C   0  0  0  0  0  2  0  0  0  0  0  0
    0.1140   36.6260   25.3090 C   0  0  0  0  0  2  0  0  0  0  0  0
   -0.8670   35.6520   24.9090 N   0  0  0  0  0  0  0  0  0  0  0  0
   -0.7940   34.8500   23.7640 C   0  0  0  0  0  0  0  0  0  0  0  0
   -1.8690   33.8460   23.4190 C   0  0  0  0  0  1  0  0  0  0  0  0
    0.2000   34.9680   23.0000 O   0  0  0  0  0  0  0  0  0  0  0  0
   -1.7140   35.5370   25.5380 H   0  0  0  0  0  0  0  0  0  0  0  0
   -3.5500   39.0080   22.8720 C   0  0  0  0  0  0  0  0  0  0  0  0
   -3.7770   39.9690   22.0290 C   0  0  0  0  0  0  0  0  0  0  0  0
   -3.1290   40.1570   20.7990 O   0  0  0  0  0  0  0  0  0  0  0  0
   -4.8330   40.8930   22.5070 C   0  0  0  0  0  3  0  0  0  0  0  0
   -5.4140   40.2410   23.7160 C   0  0  0  0  0  2  0  0  0  0  0  0
   -4.4330   39.1740   24.0180 C   0  0  0  0  0  0  0  0  0  0  0  0
   -4.3980   38.5310   25.1140 O   0  0  0  0  0  0  0  0  0  0  0  0
   -3.7220   40.3170   19.9930 H   0  0  0  0  0  0  0  0  0  0  0  0
   -5.8660   41.1350   21.4710 C   0  0  0  0  0  0  0  0  0  0  0  0
   -6.3770   40.0740   20.7620 C   0  0  0  0  0  3  0  0  0  0  0  0
   -7.3430   40.2570   19.7820 C   0  0  0  0  0  3  0  0  0  0  0  0
   -7.8020   41.5360   19.5140 C   0  0  0  0  0  3  0  0  0  0  0  0
   -7.2870   42.6010   20.2290 C   0  0  0  0  0  3  0  0  0  0  0  0
   -6.3280   42.3980   21.1980 C   0  0  0  0  0  3  0  0  0  0  0  0
   -2.8980   36.9670   21.6600 C   0  0  0  0  0  0  0  0  0  0  0  0
   -4.1030   36.3120   21.6740 C   0  0  0  0  0  3  0  0  0  0  0  0
   -4.4600   35.4620   20.6570 C   0  0  0  0  0  3  0  0  0  0  0  0
   -3.6020   35.2540   19.6000 C   0  0  0  0  0  3  0  0  0  0  0  0
   -2.3970   35.9230   19.6070 C   0  0  0  0  0  3  0  0  0  0  0  0
   -2.0360   36.7780   20.6270 C   0  0  0  0  0  3  0  0  0  0  0  0
 12 13  1  0
 32 31  1  0
 32 33  2  0
 38 39  2  0
 38 37  1  0
 39 40  1  0
 31 30  2  0
 28 23  1  0
 33 34  1  0
 11  8  1  0
 40 35  2  0
 37 36  2  0
 13  2  1  0
 30 29  1  0
 23 22  1  0
 10  2  2  0
 10  9  1  0
 34 29  2  0
 29 24  1  0
  8  9  1  0
  8  7  1  0
  2  3  1  0
 35 36  1  0
 35  1  1  0
  9  5  2  0
 22 24  1  0
 22 21  2  0
 24 25  1  0
  7  1  1  0
  7  6  2  0
  1 21  1  0
 21 26  1  0
  3  4  2  0
 19 17  2  0
  5  6  1  0
  5  4  1  0
 18 17  1  0
  6 14  1  0
 25 26  1  0
 17 16  1  0
 26 27  2  0
 16 15  1  0
 16 20  1  0
 14 15  1  0
M  RAD  8   1   2   3   2   4   2  10   2  12   2  13   3  14   3  15   3
M  RAD  8  18   2  24   2  25   3  30   2  31   2  32   2  33   2  34   2
M  RAD  5  36   2  37   2  38   2  39   2  40   2
M  END
>  <_TriposChargeType>  (1) 
GASTEIGER

>  <SuCOS_score>  (1) 
0.3166155308937178

>  <Volume_score>  (1) 
0.5214982269503546

>  <Feature_score>  (1) 
0.11173283483708094

$$$$
