DOCK.F40.P4k69/L1006_ligand.pdbt
     RDKit          3D

 42 46  0  0  0  0  0  0  0  0999 V2000
   -2.5600   39.4020   21.1260 C   0  0  0  0  0  3  0  0  0  0  0  0
   -0.4010   39.2000   22.5750 C   0  0  0  0  0  0  0  0  0  0  0  0
   -1.1580   39.5540   21.4490 C   0  0  0  0  0  0  0  0  0  0  0  0
   -0.2400   39.9830   20.5320 N   0  0  0  0  0  0  0  0  0  0  0  0
    0.9950   39.9120   20.9970 C   0  0  0  0  0  0  0  0  0  0  0  0
    2.2070   40.2340   20.3750 C   0  0  0  0  0  3  0  0  0  0  0  0
    3.3880   40.0610   21.0420 C   0  0  0  0  0  0  0  0  0  0  0  0
    4.6990   40.4000   20.3960 C   0  0  0  0  0  1  0  0  0  0  0  0
    3.3190   39.5680   22.3190 C   0  0  0  0  0  3  0  0  0  0  0  0
    2.1270   39.2520   22.9310 C   0  0  0  0  0  3  0  0  0  0  0  0
    0.9260   39.4200   22.2780 C   0  0  0  0  0  0  0  0  0  0  0  0
   -0.4660   40.3370   19.5550 H   0  0  0  0  0  0  0  0  0  0  0  0
   -0.9650   38.7960   23.8370 C   0  0  0  0  0  2  0  0  0  0  0  0
   -0.6100   37.4550   24.4190 C   0  0  1  0  0  0  0  0  0  0  0  0
    0.0210   36.5550   23.3320 C   0  0  0  0  0  1  0  0  0  0  0  0
    0.3240   37.4840   25.5750 C   0  0  0  0  0  1  0  0  0  0  0  0
   -3.1490   35.8010   26.8170 C   0  0  0  0  0  1  0  0  0  0  0  0
   -1.9630   36.5390   26.2660 C   0  0  0  0  0  0  0  0  0  0  0  0
   -1.1000   37.0000   27.0530 O   0  0  0  0  0  0  0  0  0  0  0  0
   -1.8240   36.7110   24.8440 N   0  0  0  0  0  0  0  0  0  0  0  0
   -2.5200   36.3420   24.1870 H   0  0  0  0  0  0  0  0  0  0  0  0
   -2.9540   37.9460   21.2170 C   0  0  0  0  0  0  0  0  0  0  0  0
   -2.7650   36.8660   20.5290 C   0  0  0  0  0  0  0  0  0  0  0  0
   -2.0670   36.6000   19.3390 O   0  0  0  0  0  0  0  0  0  0  0  0
   -3.5370   35.9970   21.4230 C   0  0  1  0  0  0  0  0  0  0  0  0
   -2.7710   34.9540   22.1790 C   0  0  0  0  0  1  0  0  0  0  0  0
   -3.7460   37.2230   22.1910 C   0  0  0  0  0  0  0  0  0  0  0  0
   -4.3550   37.5290   23.2510 O   0  0  0  0  0  0  0  0  0  0  0  0
   -1.1670   36.1380   19.4490 H   0  0  0  0  0  0  0  0  0  0  0  0
   -4.7370   35.4810   20.6930 C   0  0  0  0  0  0  0  0  0  0  0  0
   -4.7990   34.1870   20.2020 C   0  0  0  0  0  3  0  0  0  0  0  0
   -5.9230   33.7290   19.5300 C   0  0  0  0  0  3  0  0  0  0  0  0
   -7.0090   34.5530   19.3330 C   0  0  0  0  0  0  0  0  0  0  0  0
   -8.2320   34.0620   18.6030 C   0  0  0  0  0  1  0  0  0  0  0  0
   -6.9780   35.8290   19.8030 C   0  0  0  0  0  3  0  0  0  0  0  0
   -5.8500   36.2650   20.4690 C   0  0  0  0  0  3  0  0  0  0  0  0
   -3.5820   40.2420   21.7140 C   0  0  0  0  0  0  0  0  0  0  0  0
   -4.7070   40.5400   21.0030 C   0  0  0  0  0  3  0  0  0  0  0  0
   -5.7020   41.3450   21.5140 C   0  0  0  0  0  3  0  0  0  0  0  0
   -5.6040   41.8930   22.7840 C   0  0  0  0  0  3  0  0  0  0  0  0
   -4.4820   41.6070   23.5160 C   0  0  0  0  0  3  0  0  0  0  0  0
   -3.4960   40.8010   22.9960 C   0  0  0  0  0  3  0  0  0  0  0  0
 34 33  1  0
 33 32  1  0
 33 35  2  0
 24 29  1  0
 24 23  1  0
 32 31  2  0
 12  4  1  0
 35 36  1  0
 31 30  1  0
  6  5  1  0
  6  7  2  0
  8  7  1  0
 36 30  2  0
 23 22  2  0
 23 25  1  0
  4  5  1  0
  4  3  1  0
 30 25  1  0
  5 11  2  0
 38 39  2  0
 38 37  1  0
  7  9  1  0
  1 22  1  0
  1  3  1  0
  1 37  1  0
 22 27  1  0
 25 26  1  1
 25 27  1  0
  3  2  2  0
 39 40  1  0
 37 42  2  0
 27 28  2  0
 11  2  1  0
 11 10  1  0
  9 10  2  0
  2 13  1  0
 40 41  2  0
 42 41  1  0
 14 15  1  6
 13 14  1  0
 21 20  1  0
 14 20  1  0
 14 16  1  0
 20 18  1  0
 18 17  1  0
 18 19  2  0
M  RAD  8   1   2   6   2   8   2   9   2  10   2  13   3  15   2  16   2
M  RAD  8  17   2  26   2  31   2  32   2  34   2  35   2  36   2  38   2
M  RAD  4  39   2  40   2  41   2  42   2
M  END
>  <_TriposChargeType>  (1) 
GASTEIGER

>  <SuCOS_score>  (1) 
0.28699118839293514

>  <Volume_score>  (1) 
0.45860084126632716

>  <Feature_score>  (1) 
0.1153815355195431

$$$$
