DOCK.F40.P4k69/L1004_ligand.pdbt
     RDKit          3D

 33 36  0  0  0  0  0  0  0  0999 V2000
   -2.2390   38.6130   22.4920 C   0  0  0  0  0  3  0  0  0  0  0  0
    0.1480   38.6870   23.4610 C   0  0  0  0  0  0  0  0  0  0  0  0
   -0.8270   38.9360   22.5050 C   0  0  0  0  0  0  0  0  0  0  0  0
   -0.2040   39.5360   21.4510 N   0  0  0  0  0  0  0  0  0  0  0  0
    1.1080   39.6860   21.6720 C   0  0  0  0  0  0  0  0  0  0  0  0
    2.1370   40.2270   20.9240 C   0  0  0  0  0  3  0  0  0  0  0  0
    3.4310   40.2610   21.4030 C   0  0  0  0  0  3  0  0  0  0  0  0
    3.6790   39.7400   22.6540 C   0  0  0  0  0  0  0  0  0  0  0  0
    4.9440   39.7580   23.1440 F   0  0  0  0  0  0  0  0  0  0  0  0
    2.6280   39.2000   23.3920 C   0  0  0  0  0  3  0  0  0  0  0  0
    1.3300   39.1490   22.9450 C   0  0  0  0  0  0  0  0  0  0  0  0
   -0.6530   39.8660   20.5420 H   0  0  0  0  0  0  0  0  0  0  0  0
   -0.2010   36.5990   24.8300 C   0  0  0  0  0  1  0  0  0  0  0  0
   -0.1390   38.1030   24.7550 C   0  0  0  0  0  3  0  0  0  0  0  0
    1.0000   38.4770   25.7500 C   0  0  0  0  0  1  0  0  0  0  0  0
   -3.1350   39.8390   22.5110 C   0  0  0  0  0  0  0  0  0  0  0  0
   -3.2640   40.7830   21.6020 C   0  0  0  0  0  0  0  0  0  0  0  0
   -2.5350   40.7800   20.4000 O   0  0  0  0  0  0  0  0  0  0  0  0
   -4.2510   41.8120   22.0040 C   0  0  0  0  0  3  0  0  0  0  0  0
   -4.6940   41.4050   23.2960 N   0  0  0  0  0  0  0  0  0  0  0  0
   -4.0280   40.1970   23.6090 C   0  0  0  0  0  0  0  0  0  0  0  0
   -4.1410   39.4830   24.6630 O   0  0  0  0  0  0  0  0  0  0  0  0
   -3.0290   40.8130   19.5120 H   0  0  0  0  0  0  0  0  0  0  0  0
   -5.3810   41.9150   23.8860 H   0  0  0  0  0  0  0  0  0  0  0  0
   -5.3780   41.9460   21.0080 C   0  0  0  0  0  3  0  0  0  0  0  0
   -5.9130   40.5840   20.6100 C   0  0  0  0  0  1  0  0  0  0  0  0
   -6.4970   42.7140   21.6600 C   0  0  0  0  0  1  0  0  0  0  0  0
   -2.7150   37.5980   21.5530 C   0  0  0  0  0  0  0  0  0  0  0  0
   -1.9010   36.9710   20.6270 C   0  0  0  0  0  3  0  0  0  0  0  0
   -2.3820   36.0000   19.7700 C   0  0  0  0  0  3  0  0  0  0  0  0
   -3.7030   35.6110   19.8000 C   0  0  0  0  0  3  0  0  0  0  0  0
   -4.5200   36.2280   20.7160 C   0  0  0  0  0  3  0  0  0  0  0  0
   -4.0300   37.1890   21.5610 C   0  0  0  0  0  3  0  0  0  0  0  0
 23 18  1  0
 30 31  1  0
 30 29  2  0
 31 32  2  0
 18 17  1  0
 12  4  1  0
 26 25  1  0
 29 28  1  0
 32 33  1  0
  6  7  2  0
  6  5  1  0
 25 27  1  0
 25 19  1  0
  7  8  1  0
  4  5  1  0
  4  3  1  0
 28 33  2  0
 28  1  1  0
 17 19  1  0
 17 16  2  0
  5 11  2  0
 19 20  1  0
  1  3  1  0
  1 16  1  0
  3  2  2  0
 16 21  1  0
  8  9  1  0
  8 10  2  0
 11 10  1  0
 11  2  1  0
 20 21  1  0
 20 24  1  0
  2 14  1  0
 21 22  2  0
 14 13  1  0
 14 15  1  0
M  RAD  8   1   2   6   2   7   2  10   2  13   2  14   2  15   2  19   2
M  RAD  8  25   2  26   2  27   2  29   2  30   2  31   2  32   2  33   2
M  END
>  <_TriposChargeType>  (1) 
GASTEIGER

>  <SuCOS_score>  (1) 
0.30376376206409594

>  <Volume_score>  (1) 
0.5063528891835156

>  <Feature_score>  (1) 
0.10117463494467623

$$$$
