DOCK.F40.P4k69/L1016_ligand.pdbt
     RDKit          3D

 29 32  0  0  0  0  0  0  0  0999 V2000
   -4.4470   38.9710   21.5050 C   0  0  0  0  0  0  0  0  0  0  0  0
   -3.3350   39.8250   21.5990 C   0  0  0  0  0  0  0  0  0  0  0  0
   -2.2570   39.1990   21.1760 N   0  0  0  0  0  4  0  0  0  0  0  0
   -2.6760   37.8990   20.8000 C   0  0  0  0  0  0  0  0  0  0  0  0
   -2.0050   36.8240   20.2950 C   0  0  0  0  0  3  0  0  0  0  0  0
   -2.6280   35.6470   19.9940 C   0  0  0  0  0  3  0  0  0  0  0  0
   -3.9870   35.5350   20.2070 C   0  0  0  0  0  3  0  0  0  0  0  0
   -4.7030   36.5860   20.7130 C   0  0  0  0  0  3  0  0  0  0  0  0
   -4.0190   37.7740   21.0060 C   0  0  0  0  0  0  0  0  0  0  0  0
   -3.4360   41.1920   22.0930 C   0  0  0  0  0  0  0  0  0  0  0  0
   -3.1920   42.2000   21.4000 O   0  0  0  0  0  1  0  0  0  0  0  0
   -3.8250   41.4310   23.4000 O   0  0  0  0  0  0  0  0  0  0  0  0
   -5.8460   39.2720   21.8790 C   0  0  0  0  0  2  0  0  0  0  0  0
   -7.8560   41.2000   19.2000 C   0  0  0  0  0  1  0  0  0  0  0  0
   -7.0640   40.9110   20.3710 N   0  0  0  0  0  0  0  0  0  0  0  0
   -6.6600   41.9720   21.2460 C   0  0  0  0  0  1  0  0  0  0  0  0
   -6.6650   39.5870   20.6740 C   0  0  0  0  0  0  0  0  0  0  0  0
   -6.9930   38.6300   19.9210 O   0  0  0  0  0  0  0  0  0  0  0  0
   -0.9030   39.5300   20.9550 C   0  0  0  0  0  2  0  0  0  0  0  0
    0.0770   39.2580   22.0740 C   0  0  0  0  0  0  0  0  0  0  0  0
   -0.4160   38.8490   23.2860 C   0  0  0  0  0  3  0  0  0  0  0  0
    0.9640   38.8000   24.2780 S   0  0  0  0  0  0  0  0  0  0  0  0
    2.1420   39.2890   23.1530 C   0  0  0  0  0  0  0  0  0  0  0  0
    3.5340   39.4410   23.2270 C   0  0  0  0  0  3  0  0  0  0  0  0
    4.2630   39.8000   22.1190 C   0  0  0  0  0  3  0  0  0  0  0  0
    3.5480   39.9960   20.9690 C   0  0  0  0  0  0  0  0  0  0  0  0
    4.2480   40.3550   19.8590 F   0  0  0  0  0  0  0  0  0  0  0  0
    2.1940   39.8540   20.8820 C   0  0  0  0  0  3  0  0  0  0  0  0
    1.4170   39.4870   22.0070 C   0  0  0  0  0  0  0  0  0  0  0  0
 14 15  1  0
 27 26  1  0
 18 17  2  0
  6  7  2  0
  6  5  1  0
  7  8  1  0
  5  4  2  0
 15 17  1  0
 15 16  1  0
 17 13  1  0
  8  9  2  0
  4  9  1  0
  4  3  1  0
 28 26  1  0
 28 29  2  0
 19  3  1  0
 19 20  1  0
 26 25  2  0
  9  1  1  0
  3  2  1  0
 11 10  1  0
  1  2  2  0
  1 13  1  0
  2 10  1  0
 29 20  1  0
 29 23  1  0
 20 21  2  0
 10 12  2  0
 25 24  1  0
 23 24  2  0
 23 22  1  0
 21 22  1  0
M  RAD  8   5   2   6   2   7   2   8   2  13   3  14   2  16   2  19   3
M  CHG  2   3   1  11  -1
M  RAD  4  21   2  24   2  25   2  28   2
M  END
>  <_TriposChargeType>  (1) 
GASTEIGER

>  <SuCOS_score>  (1) 
0.33191547243366126

>  <Volume_score>  (1) 
0.519279637609104

>  <Feature_score>  (1) 
0.14455130725821858

$$$$
