DOCK.F40.P4k69/L1013_ligand.pdbt
     RDKit          3D

 27 30  0  0  0  0  0  0  0  0999 V2000
   -4.4320   38.9550   21.4920 N   0  0  0  0  0  4  0  0  0  0  0  0
   -3.3600   39.7830   21.6520 C   0  0  0  0  0  0  0  0  0  0  0  0
   -2.2000   39.1700   21.2350 C   0  0  0  0  0  0  0  0  0  0  0  0
   -2.6340   37.8970   20.8000 C   0  0  0  0  0  0  0  0  0  0  0  0
   -1.9570   36.8290   20.2510 C   0  0  0  0  0  3  0  0  0  0  0  0
   -2.6250   35.6790   19.8780 C   0  0  0  0  0  3  0  0  0  0  0  0
   -3.9830   35.5940   20.0550 C   0  0  0  0  0  3  0  0  0  0  0  0
   -4.6750   36.6460   20.6000 C   0  0  0  0  0  3  0  0  0  0  0  0
   -3.9750   37.8100   20.9710 C   0  0  0  0  0  0  0  0  0  0  0  0
   -3.5260   41.1390   22.1760 C   0  0  0  0  0  0  0  0  0  0  0  0
   -3.2000   42.1080   21.4000 O   0  0  0  0  0  1  0  0  0  0  0  0
   -4.0000   41.4590   23.4290 O   0  0  0  0  0  0  0  0  0  0  0  0
   -5.8360   39.1890   21.8080 C   0  0  0  0  0  2  0  0  0  0  0  0
   -6.6180   39.5590   20.5730 C   0  0  0  0  0  2  0  0  0  0  0  0
   -7.8000   41.1760   19.4010 C   0  0  0  0  0  1  0  0  0  0  0  0
   -7.0520   40.8560   20.5280 O   0  0  0  0  0  0  0  0  0  0  0  0
   -0.8200   39.6640   21.1410 C   0  0  0  0  0  2  0  0  0  0  0  0
    0.1710   39.4110   22.1330 C   0  0  0  0  0  0  0  0  0  0  0  0
   -0.1930   39.0010   23.4330 C   0  0  0  0  0  3  0  0  0  0  0  0
    0.6830   38.7990   24.4490 C   0  0  0  0  0  3  0  0  0  0  0  0
    2.0180   38.9920   24.2520 C   0  0  0  0  0  3  0  0  0  0  0  0
    2.4460   39.3910   23.0140 C   0  0  0  0  0  0  0  0  0  0  0  0
    3.8030   39.6000   22.8000 C   0  0  0  0  0  3  0  0  0  0  0  0
    4.2930   40.0120   21.5730 C   0  0  0  0  0  3  0  0  0  0  0  0
    3.3990   40.2090   20.5710 C   0  0  0  0  0  3  0  0  0  0  0  0
    2.0640   39.9990   20.7950 C   0  0  0  0  0  3  0  0  0  0  0  0
    1.5210   39.5920   21.9850 C   0  0  0  0  0  0  0  0  0  0  0  0
 15 16  1  0
  6  7  2  0
  6  5  1  0
  7  8  1  0
  5  4  2  0
 16 14  1  0
 25 26  1  0
 25 24  2  0
 14 13  1  0
  8  9  2  0
 26 27  2  0
  4  9  1  0
  4  3  1  0
  9  1  1  0
 17  3  1  0
 17 18  1  0
  3  2  2  0
 11 10  1  0
  1  2  1  0
  1 13  1  0
 24 23  1  0
  2 10  1  0
 27 18  1  0
 27 22  1  0
 18 19  2  0
 10 12  2  0
 23 22  2  0
 22 21  1  0
 19 20  1  0
 21 20  2  0
M  RAD  8   5   2   6   2   7   2   8   2  13   3  14   3  15   2  17   3
M  CHG  2   1   1  11  -1
M  RAD  7  19   2  20   2  21   2  23   2  24   2  25   2  26   2
M  END
>  <_TriposChargeType>  (1) 
GASTEIGER

>  <SuCOS_score>  (1) 
0.3398798791697426

>  <Volume_score>  (1) 
0.49331565572864877

>  <Feature_score>  (1) 
0.1864441026108364

$$$$
