DOCK.F40.P4k69/L1011_ligand.pdbt
     RDKit          3D

 30 33  0  0  0  0  0  0  0  0999 V2000
   -4.4050   39.0240   21.5260 C   0  0  0  0  0  0  0  0  0  0  0  0
   -3.3000   39.8680   21.5610 C   0  0  0  0  0  0  0  0  0  0  0  0
   -2.2260   39.1690   21.0770 N   0  0  0  0  0  4  0  0  0  0  0  0
   -2.6110   37.9250   20.7360 C   0  0  0  0  0  0  0  0  0  0  0  0
   -1.9570   36.8280   20.2000 C   0  0  0  0  0  3  0  0  0  0  0  0
   -2.6000   35.6360   19.9300 C   0  0  0  0  0  3  0  0  0  0  0  0
   -3.9500   35.5680   20.2200 C   0  0  0  0  0  0  0  0  0  0  0  0
   -4.5890   34.4020   19.9630 F   0  0  0  0  0  0  0  0  0  0  0  0
   -4.6100   36.6440   20.7500 C   0  0  0  0  0  3  0  0  0  0  0  0
   -3.9500   37.8270   21.0110 C   0  0  0  0  0  0  0  0  0  0  0  0
   -3.3900   41.2490   21.9940 C   0  0  0  0  0  0  0  0  0  0  0  0
   -3.0860   42.2000   21.2050 O   0  0  0  0  0  1  0  0  0  0  0  0
   -3.8000   41.6200   23.2640 O   0  0  0  0  0  0  0  0  0  0  0  0
   -5.8050   39.3210   21.9160 C   0  0  0  0  0  2  0  0  0  0  0  0
   -7.8800   41.2000   19.2590 C   0  0  0  0  0  1  0  0  0  0  0  0
   -7.0410   41.0010   20.4360 N   0  0  0  0  0  0  0  0  0  0  0  0
   -6.6850   42.1660   21.1850 C   0  0  0  0  0  1  0  0  0  0  0  0
   -6.6340   39.6940   20.7600 C   0  0  0  0  0  0  0  0  0  0  0  0
   -7.0000   38.7330   20.0030 O   0  0  0  0  0  0  0  0  0  0  0  0
   -0.8950   39.7300   21.0290 C   0  0  0  0  0  2  0  0  0  0  0  0
   -0.1660   39.3930   22.2790 C   0  0  0  0  0  0  0  0  0  0  0  0
   -0.8600   38.8370   23.3500 C   0  0  0  0  0  3  0  0  0  0  0  0
   -0.1900   38.4000   24.4840 C   0  0  0  0  0  3  0  0  0  0  0  0
    1.1740   38.5180   24.5450 C   0  0  0  0  0  3  0  0  0  0  0  0
    1.9100   39.0590   23.5210 C   0  0  0  0  0  0  0  0  0  0  0  0
    3.2970   39.2000   23.6550 C   0  0  0  0  0  3  0  0  0  0  0  0
    3.9830   39.7970   22.6200 C   0  0  0  0  0  3  0  0  0  0  0  0
    3.3690   40.2460   21.4870 C   0  0  0  0  0  3  0  0  0  0  0  0
    1.9730   40.0790   21.4000 C   0  0  0  0  0  3  0  0  0  0  0  0
    1.2260   39.4930   22.3920 C   0  0  0  0  0  0  0  0  0  0  0  0
 15 16  1  0
  6  5  2  0
  6  7  1  0
  8  7  1  0
 19 18  2  0
  5  4  1  0
  7  9  2  0
 16 18  1  0
 16 17  1  0
  4 10  2  0
  4  3  1  0
  9 10  1  0
 18 14  1  0
 10  1  1  0
 20  3  1  0
 20 21  1  0
  3  2  1  0
 12 11  1  0
 29 28  1  0
 29 30  2  0
 28 27  2  0
  1  2  2  0
  1 14  1  0
  2 11  1  0
 11 13  2  0
 21 30  1  0
 21 22  2  0
 30 25  1  0
 27 26  1  0
 22 23  1  0
 25 26  2  0
 25 24  1  0
 23 24  2  0
M  RAD  8   5   2   6   2   9   2  14   3  15   2  17   2  20   3  22   2
M  CHG  2   3   1  12  -1
M  RAD  6  23   2  24   2  26   2  27   2  28   2  29   2
M  END
>  <_TriposChargeType>  (1) 
GASTEIGER

>  <SuCOS_score>  (1) 
0.3558319412712558

>  <Volume_score>  (1) 
0.5196110926969395

>  <Feature_score>  (1) 
0.19205278984557203

$$$$
