DOCK.F40.P4k69/L1014_ligand.pdbt
     RDKit          3D

 24 27  0  0  0  0  0  0  0  0999 V2000
   -0.9490   39.5310   21.0520 C   0  0  0  0  0  2  0  0  0  0  0  0
    1.3000   40.6000   20.4240 C   0  0  0  0  0  1  0  0  0  0  0  0
    1.8440   39.9820   21.6180 C   0  0  0  0  0  0  0  0  0  0  0  0
    3.2140   40.0760   21.9340 C   0  0  0  0  0  3  0  0  0  0  0  0
    3.7560   39.6000   23.0930 C   0  0  0  0  0  3  0  0  0  0  0  0
    2.9350   39.0000   24.0000 C   0  0  0  0  0  3  0  0  0  0  0  0
    1.5790   38.8800   23.7400 C   0  0  0  0  0  0  0  0  0  0  0  0
    0.7750   38.3180   24.6940 C   0  0  0  0  0  3  0  0  0  0  0  0
   -0.5620   38.2380   24.4700 C   0  0  0  0  0  3  0  0  0  0  0  0
   -1.0860   38.6990   23.3210 C   0  0  0  0  0  3  0  0  0  0  0  0
   -0.3140   39.2930   22.2770 C   0  0  0  0  0  0  0  0  0  0  0  0
    1.0240   39.3660   22.5450 C   0  0  0  0  0  0  0  0  0  0  0  0
   -2.3770   39.0540   21.1800 N   0  0  0  0  0  0  0  0  0  0  0  0
   -3.4140   39.6920   21.7370 C   0  0  0  0  0  0  0  0  0  0  0  0
   -4.5220   38.8110   21.6920 C   0  0  0  0  0  3  0  0  0  0  0  0
   -4.1370   37.6410   21.1030 C   0  0  0  0  0  0  0  0  0  0  0  0
   -4.7890   36.4390   20.8190 C   0  0  0  0  0  3  0  0  0  0  0  0
   -4.1270   35.3930   20.2260 C   0  0  0  0  0  3  0  0  0  0  0  0
   -2.8010   35.5710   19.9220 C   0  0  0  0  0  3  0  0  0  0  0  0
   -2.1600   36.7660   20.2060 C   0  0  0  0  0  3  0  0  0  0  0  0
   -2.7970   37.8290   20.7990 C   0  0  0  0  0  0  0  0  0  0  0  0
   -3.4940   41.0140   22.2990 C   0  0  0  0  0  0  0  0  0  0  0  0
   -3.0420   42.0000   21.6000 O   0  0  0  0  0  1  0  0  0  0  0  0
   -4.0000   41.3830   23.5090 O   0  0  0  0  0  0  0  0  0  0  0  0
 19 20  1  0
 19 18  2  0
 20 21  2  0
 18 17  1  0
  2  3  1  0
 21 16  1  0
 21 13  1  0
 17 16  2  0
  1 13  1  0
  1 11  1  0
 16 15  1  0
 13 14  1  0
 23 22  1  0
  3  4  2  0
  3 12  1  0
 15 14  2  0
 14 22  1  0
  4  5  1  0
 11 12  2  0
 11 10  1  0
 22 24  2  0
 12  7  1  0
  5  6  2  0
 10  9  2  0
  7  6  1  0
  7  8  2  0
  9  8  1  0
M  RAD  8   1   3   2   2   4   2   5   2   6   2   8   2   9   2  10   2
M  CHG  1  23  -1
M  RAD  5  15   2  17   2  18   2  19   2  20   2
M  END
>  <_TriposChargeType>  (1) 
GASTEIGER

>  <SuCOS_score>  (1) 
0.3541119357673471

>  <Volume_score>  (1) 
0.41277206938459843

>  <Feature_score>  (1) 
0.2954518021500958

$$$$
