DOCK.F40.P1t31/L1008_ligand.pdbt
     RDKit          3D

 32 36  0  0  0  0  0  0  0  0999 V2000
   -1.8400   39.1360   24.8610 C   0  0  0  0  0  3  0  0  0  0  0  0
    4.0470   40.3990   20.3550 C   0  0  0  0  0  1  0  0  0  0  0  0
    3.3760   40.0320   21.6400 C   0  0  0  0  0  0  0  0  0  0  0  0
    4.1620   39.7150   22.7250 C   0  0  0  0  0  3  0  0  0  0  0  0
    3.5120   39.3810   23.9000 C   0  0  0  0  0  3  0  0  0  0  0  0
    2.1220   39.3700   23.9640 C   0  0  0  0  0  0  0  0  0  0  0  0
    1.0010   39.0190   25.2000 S   0  0  0  0  0  0  0  0  0  0  0  0
   -0.4510   39.2730   24.3490 C   0  0  0  0  0  0  0  0  0  0  0  0
   -0.0100   39.6310   23.0990 C   0  0  0  0  0  0  0  0  0  0  0  0
   -1.0520   39.9460   22.0260 C   0  0  0  0  0  1  0  0  0  0  0  0
    1.3180   39.6810   22.9000 C   0  0  0  0  0  0  0  0  0  0  0  0
    2.0140   40.0160   21.7270 C   0  0  0  0  0  3  0  0  0  0  0  0
   -2.5350   37.9270   24.3430 C   0  0  0  0  0  0  0  0  0  0  0  0
   -2.3270   36.6530   24.2370 C   0  0  0  0  0  0  0  0  0  0  0  0
   -1.2540   35.8230   24.6040 O   0  0  0  0  0  0  0  0  0  0  0  0
   -3.5950   36.3790   23.6030 C   0  0  1  0  0  0  0  0  0  0  0  0
   -4.6110   35.6160   24.4330 C   0  0  0  0  0  1  0  0  0  0  0  0
   -3.8250   37.8040   23.7200 C   0  0  0  0  0  0  0  0  0  0  0  0
   -4.7860   38.5900   23.3950 O   0  0  0  0  0  0  0  0  0  0  0  0
   -1.3460   35.3350   25.4850 H   0  0  0  0  0  0  0  0  0  0  0  0
   -3.5410   35.9520   22.1850 C   0  0  0  0  0  0  0  0  0  0  0  0
   -4.3350   34.9500   21.6820 C   0  0  0  0  0  3  0  0  0  0  0  0
   -4.2770   34.5550   20.3560 C   0  0  0  0  0  3  0  0  0  0  0  0
   -3.4030   35.1760   19.5090 C   0  0  0  0  0  3  0  0  0  0  0  0
   -2.5990   36.1820   20.0000 C   0  0  0  0  0  3  0  0  0  0  0  0
   -2.6610   36.5750   21.3310 C   0  0  0  0  0  3  0  0  0  0  0  0
   -1.7550   38.9990   26.3400 C   0  0  0  0  0  0  0  0  0  0  0  0
   -2.6290   38.2070   27.0520 C   0  0  0  0  0  3  0  0  0  0  0  0
   -2.5050   38.1210   28.4010 C   0  0  0  0  0  3  0  0  0  0  0  0
   -1.5380   38.7990   29.0700 C   0  0  0  0  0  3  0  0  0  0  0  0
   -0.6550   39.6010   28.3420 C   0  0  0  0  0  3  0  0  0  0  0  0
   -0.7520   39.7110   26.9750 C   0  0  0  0  0  3  0  0  0  0  0  0
 24 25  2  0
 24 23  1  0
 25 26  1  0
  2  3  1  0
 23 22  2  0
 26 21  2  0
  3 12  2  0
  3  4  1  0
 22 21  1  0
 12 11  1  0
 10  9  1  0
 21 16  1  0
  4  5  2  0
 11  9  1  0
 11  6  2  0
  9  8  2  0
 19 18  2  0
 16 18  1  0
 16 14  1  0
 16 17  1  1
 18 13  1  0
  5  6  1  0
  6  7  1  0
 14 13  2  0
 14 15  1  0
 13  1  1  0
  8  1  1  0
  8  7  1  0
 15 20  1  0
  1 27  1  0
 27 32  1  0
 27 28  2  0
 32 31  2  0
 28 29  1  0
 31 30  1  0
 29 30  2  0
M  RAD  8   1   2   2   2   4   2   5   2  10   2  12   2  17   2  22   2
M  RAD  8  23   2  24   2  25   2  26   2  28   2  29   2  30   2  31   2
M  RAD  1  32   2
M  END
>  <_TriposChargeType>  (1) 
GASTEIGER

>  <SuCOS_score>  (1) 
0.31772720431046664

>  <Volume_score>  (1) 
0.3854063018242123

>  <Feature_score>  (1) 
0.250048106796721

$$$$
