DOCK.F40.P1t31/L1001_ligand.pdbt
     RDKit          3D

 32 35  0  0  0  0  0  0  0  0999 V2000
   -4.8380   37.5680   21.6230 C   0  0  0  0  0  0  0  0  0  0  0  0
   -3.7330   38.4170   21.7880 C   0  0  0  0  0  0  0  0  0  0  0  0
   -2.6920   37.9230   21.1130 N   0  0  0  0  0  4  0  0  0  0  0  0
   -3.1000   36.7870   20.5250 C   0  0  0  0  0  0  0  0  0  0  0  0
   -2.4000   35.8820   19.7040 C   0  0  0  0  0  3  0  0  0  0  0  0
   -3.0040   34.7720   19.1980 C   0  0  0  0  0  3  0  0  0  0  0  0
   -4.3240   34.5080   19.4810 C   0  0  0  0  0  0  0  0  0  0  0  0
   -4.9640   33.4180   19.0000 F   0  0  0  0  0  0  0  0  0  0  0  0
   -5.0010   35.4080   20.2920 C   0  0  0  0  0  3  0  0  0  0  0  0
   -4.4120   36.5500   20.8230 C   0  0  0  0  0  0  0  0  0  0  0  0
   -3.7750   39.6330   22.5850 C   0  0  0  0  0  0  0  0  0  0  0  0
   -3.0780   39.7430   23.6010 O   0  0  0  0  0  1  0  0  0  0  0  0
   -4.6000   40.6620   22.2000 O   0  0  0  0  0  0  0  0  0  0  0  0
   -6.1410   37.8000   22.2160 C   0  0  0  0  0  2  0  0  0  0  0  0
   -7.9850   37.0460   20.8040 C   0  0  0  0  0  0  0  0  0  0  0  0
   -7.8010   38.0000   19.9980 O   0  0  0  0  0  0  0  0  0  0  0  0
   -7.1930   36.8770   21.9720 N   0  0  0  0  0  0  0  0  0  0  0  0
   -7.4910   35.7400   22.8360 C   0  0  0  0  0  1  0  0  0  0  0  0
   -8.9900   36.1470   20.5280 O   0  0  0  0  0  0  0  0  0  0  0  0
   -8.2950   34.7470   18.7420 C   0  0  0  0  0  1  0  0  0  0  0  0
   -9.3480   35.7100   19.2350 C   0  0  0  0  0  2  0  0  0  0  0  0
   -1.3660   38.4540   20.9990 C   0  0  0  0  0  2  0  0  0  0  0  0
   -0.5660   38.2850   22.2330 C   0  0  0  0  0  0  0  0  0  0  0  0
   -0.9800   37.5540   23.3280 C   0  0  0  0  0  3  0  0  0  0  0  0
   -0.1910   37.4220   24.4690 C   0  0  0  0  0  3  0  0  0  0  0  0
    1.0430   38.0580   24.4740 C   0  0  0  0  0  3  0  0  0  0  0  0
    1.4970   38.8010   23.4020 C   0  0  0  0  0  0  0  0  0  0  0  0
    2.7220   39.4230   23.4240 C   0  0  0  0  0  3  0  0  0  0  0  0
    3.1390   40.1520   22.3390 C   0  0  0  0  0  3  0  0  0  0  0  0
    2.3710   40.2890   21.2080 C   0  0  0  0  0  3  0  0  0  0  0  0
    1.1380   39.6500   21.2130 C   0  0  0  0  0  3  0  0  0  0  0  0
    0.6670   38.9040   22.2740 C   0  0  0  0  0  0  0  0  0  0  0  0
 20 21  1  0
  8  7  1  0
  6  7  2  0
  6  5  1  0
 21 19  1  0
  7  9  1  0
  5  4  2  0
 16 15  2  0
  9 10  2  0
  4 10  1  0
  4  3  1  0
 19 15  1  0
 15 17  1  0
 10  1  1  0
 22  3  1  0
 22 23  1  0
  3  2  1  0
 30 31  1  0
 30 29  2  0
 31 32  2  0
  1  2  2  0
  1 14  1  0
  2 11  1  0
 17 14  1  0
 17 18  1  0
 13 11  2  0
 23 32  1  0
 23 24  2  0
 32 27  1  0
 29 28  1  0
 11 12  1  0
 24 25  1  0
 27 28  2  0
 27 26  1  0
 25 26  2  0
M  RAD  8   5   2   6   2   9   2  14   3  18   2  20   2  21   3  22   3
M  CHG  2   3   1  12  -1
M  RAD  7  24   2  25   2  26   2  28   2  29   2  30   2  31   2
M  END
>  <_TriposChargeType>  (1) 
GASTEIGER

>  <SuCOS_score>  (1) 
0.2362126936571343

>  <Volume_score>  (1) 
0.394372438240833

>  <Feature_score>  (1) 
0.07805294907343557

$$$$
