DOCK.F40.P1t31/L1004_ligand.pdbt
     RDKit          3D

 33 36  0  0  0  0  0  0  0  0999 V2000
   -1.1470   38.3530   24.8360 C   0  0  0  0  0  3  0  0  0  0  0  0
    0.1960   39.2590   22.8310 C   0  0  0  0  0  0  0  0  0  0  0  0
    0.0450   38.7420   24.1110 C   0  0  0  0  0  0  0  0  0  0  0  0
    1.2890   38.6940   24.6670 N   0  0  0  0  0  0  0  0  0  0  0  0
    2.2250   39.1500   23.8260 C   0  0  0  0  0  0  0  0  0  0  0  0
    3.5960   39.2960   23.9260 C   0  0  0  0  0  3  0  0  0  0  0  0
    4.3420   39.8010   22.8810 C   0  0  0  0  0  3  0  0  0  0  0  0
    3.6880   40.1590   21.7220 C   0  0  0  0  0  0  0  0  0  0  0  0
    4.3990   40.6620   20.6840 F   0  0  0  0  0  0  0  0  0  0  0  0
    2.3060   40.0050   21.6420 C   0  0  0  0  0  3  0  0  0  0  0  0
    1.5320   39.5070   22.6630 C   0  0  0  0  0  0  0  0  0  0  0  0
    1.5430   38.3480   25.6430 H   0  0  0  0  0  0  0  0  0  0  0  0
   -1.4120   38.1640   21.2280 C   0  0  0  0  0  1  0  0  0  0  0  0
   -0.9040   39.4120   21.9010 C   0  0  0  0  0  3  0  0  0  0  0  0
   -2.1480   39.9530   22.6670 C   0  0  0  0  0  1  0  0  0  0  0  0
   -1.4380   36.8650   24.7570 C   0  0  0  0  0  0  0  0  0  0  0  0
   -2.4500   36.2490   24.1820 C   0  0  0  0  0  0  0  0  0  0  0  0
   -3.4750   36.9410   23.5130 O   0  0  0  0  0  0  0  0  0  0  0  0
   -2.3650   34.7780   24.3310 C   0  0  0  0  0  3  0  0  0  0  0  0
   -1.1870   34.5590   25.1020 N   0  0  0  0  0  0  0  0  0  0  0  0
   -0.6080   35.8240   25.3560 C   0  0  0  0  0  0  0  0  0  0  0  0
    0.4640   36.0870   26.0000 O   0  0  0  0  0  0  0  0  0  0  0  0
   -3.6810   36.7200   22.5410 H   0  0  0  0  0  0  0  0  0  0  0  0
   -0.8320   33.6310   25.4110 H   0  0  0  0  0  0  0  0  0  0  0  0
   -2.3410   34.0670   22.9990 C   0  0  0  0  0  3  0  0  0  0  0  0
   -1.0010   33.3940   22.7690 C   0  0  0  0  0  1  0  0  0  0  0  0
   -3.4020   32.9990   23.0130 C   0  0  0  0  0  1  0  0  0  0  0  0
   -1.3470   38.8820   26.1840 C   0  0  0  0  0  0  0  0  0  0  0  0
   -0.3870   39.6000   26.8750 C   0  0  0  0  0  3  0  0  0  0  0  0
   -0.6210   40.1040   28.1400 C   0  0  0  0  0  3  0  0  0  0  0  0
   -1.8300   39.9120   28.7730 C   0  0  0  0  0  3  0  0  0  0  0  0
   -2.7900   39.2010   28.0950 C   0  0  0  0  0  3  0  0  0  0  0  0
   -2.5450   38.7070   26.8410 C   0  0  0  0  0  3  0  0  0  0  0  0
  9  8  1  0
 13 14  1  0
 10  8  1  0
 10 11  2  0
  8  7  2  0
 14 15  1  0
 14  2  1  0
 23 18  1  0
 11  2  1  0
 11  5  1  0
 26 25  1  0
  2  3  2  0
  7  6  1  0
 25 27  1  0
 25 19  1  0
 18 17  1  0
  5  6  2  0
  5  4  1  0
  3  4  1  0
  3  1  1  0
 17 19  1  0
 17 16  2  0
 19 20  1  0
  4 12  1  0
 16  1  1  0
 16 21  1  0
  1 28  1  0
 20 21  1  0
 20 24  1  0
 21 22  2  0
 28 33  1  0
 28 29  2  0
 33 32  2  0
 29 30  1  0
 32 31  1  0
 30 31  2  0
M  RAD  8   1   2   6   2   7   2  10   2  13   2  14   2  15   2  19   2
M  RAD  8  25   2  26   2  27   2  29   2  30   2  31   2  32   2  33   2
M  END
>  <_TriposChargeType>  (1) 
GASTEIGER

>  <SuCOS_score>  (1) 
0.28289051912061564

>  <Volume_score>  (1) 
0.32721035741949767

>  <Feature_score>  (1) 
0.23857068082173358

$$$$
