DOCK.F40.P1t31/L1006_ligand.pdbt
     RDKit          3D

 42 46  0  0  0  0  0  0  0  0999 V2000
   -1.1420   37.0120   23.4990 C   0  0  0  0  0  3  0  0  0  0  0  0
   -1.8320   34.5940   22.8060 C   0  0  0  0  0  0  0  0  0  0  0  0
   -1.0450   35.5700   23.4350 C   0  0  0  0  0  0  0  0  0  0  0  0
    0.0380   34.8890   23.9150 N   0  0  0  0  0  0  0  0  0  0  0  0
   -0.0190   33.6020   23.6270 C   0  0  0  0  0  0  0  0  0  0  0  0
    0.8900   32.5770   23.9170 C   0  0  0  0  0  3  0  0  0  0  0  0
    0.6400   31.2990   23.5000 C   0  0  0  0  0  0  0  0  0  0  0  0
    1.5990   30.1850   23.8000 C   0  0  0  0  0  1  0  0  0  0  0  0
   -0.5190   31.0850   22.8000 C   0  0  0  0  0  3  0  0  0  0  0  0
   -1.4130   32.0920   22.5150 C   0  0  0  0  0  3  0  0  0  0  0  0
   -1.1810   33.3860   22.9270 C   0  0  0  0  0  0  0  0  0  0  0  0
    0.8440   35.3210   24.4590 H   0  0  0  0  0  0  0  0  0  0  0  0
   -3.1370   34.8390   22.2510 C   0  0  0  0  0  2  0  0  0  0  0  0
   -3.2660   35.5250   20.9180 C   0  0  1  0  0  0  0  0  0  0  0  0
   -2.4000   34.8000   19.8620 C   0  0  0  0  0  1  0  0  0  0  0  0
   -4.6470   35.6210   20.3760 C   0  0  0  0  0  1  0  0  0  0  0  0
   -3.1990   39.3590   21.4000 C   0  0  0  0  0  1  0  0  0  0  0  0
   -3.6470   37.9280   21.3240 C   0  0  0  0  0  0  0  0  0  0  0  0
   -4.8420   37.6380   21.5770 O   0  0  0  0  0  0  0  0  0  0  0  0
   -2.7060   36.9010   20.9620 N   0  0  0  0  0  0  0  0  0  0  0  0
   -1.7260   37.1190   20.7530 H   0  0  0  0  0  0  0  0  0  0  0  0
   -1.9700   37.4210   24.6960 C   0  0  0  0  0  0  0  0  0  0  0  0
   -2.7250   38.4180   25.0330 C   0  0  0  0  0  0  0  0  0  0  0  0
   -3.0990   39.6000   24.3730 O   0  0  0  0  0  0  0  0  0  0  0  0
   -3.0630   37.8910   26.3590 C   0  0  1  0  0  0  0  0  0  0  0  0
   -4.4890   37.4890   26.5830 C   0  0  0  0  0  1  0  0  0  0  0  0
   -2.2070   36.7710   25.9690 C   0  0  0  0  0  0  0  0  0  0  0  0
   -1.8310   35.6940   26.5050 O   0  0  0  0  0  0  0  0  0  0  0  0
   -4.0430   39.6120   23.9900 H   0  0  0  0  0  0  0  0  0  0  0  0
   -2.4990   38.7970   27.4080 C   0  0  0  0  0  0  0  0  0  0  0  0
   -3.2860   39.3450   28.4070 C   0  0  0  0  0  3  0  0  0  0  0  0
   -2.7420   40.1810   29.3710 C   0  0  0  0  0  3  0  0  0  0  0  0
   -1.3990   40.4890   29.3570 C   0  0  0  0  0  0  0  0  0  0  0  0
   -0.8020   41.3980   30.4000 C   0  0  0  0  0  1  0  0  0  0  0  0
   -0.6000   39.9670   28.3880 C   0  0  0  0  0  3  0  0  0  0  0  0
   -1.1620   39.1370   27.4390 C   0  0  0  0  0  3  0  0  0  0  0  0
    0.0170   37.8700   23.3690 C   0  0  0  0  0  0  0  0  0  0  0  0
    0.8700   38.0220   24.4220 C   0  0  0  0  0  3  0  0  0  0  0  0
    1.9790   38.8380   24.3510 C   0  0  0  0  0  3  0  0  0  0  0  0
    2.2800   39.5450   23.1980 C   0  0  0  0  0  3  0  0  0  0  0  0
    1.4360   39.4070   22.1270 C   0  0  0  0  0  3  0  0  0  0  0  0
    0.3330   38.5900   22.2100 C   0  0  0  0  0  3  0  0  0  0  0  0
 14 15  1  6
 16 14  1  0
 21 20  1  0
 14 20  1  0
 14 13  1  0
 20 18  1  0
 18 17  1  0
 18 19  2  0
 41 42  2  0
 41 40  1  0
 42 37  1  0
 13  2  1  0
 10  9  1  0
 10 11  2  0
  9  7  2  0
  2 11  1  0
  2  3  2  0
 11  5  1  0
 40 39  2  0
 37  1  1  0
 37 38  2  0
  3  1  1  0
  3  4  1  0
  1 22  1  0
  7  8  1  0
  7  6  1  0
  5  4  1  0
  5  6  2  0
  4 12  1  0
 29 24  1  0
 39 38  1  0
 24 23  1  0
 22 23  2  0
 22 27  1  0
 23 25  1  0
 27 25  1  0
 27 28  2  0
 25 26  1  6
 25 30  1  0
 30 36  1  0
 30 31  2  0
 36 35  2  0
 35 33  1  0
 31 32  1  0
 33 32  2  0
 33 34  1  0
M  RAD  8   1   2   6   2   8   2   9   2  10   2  13   3  15   2  16   2
M  RAD  8  17   2  26   2  31   2  32   2  34   2  35   2  36   2  38   2
M  RAD  4  39   2  40   2  41   2  42   2
M  END
>  <_TriposChargeType>  (1) 
GASTEIGER

>  <SuCOS_score>  (1) 
0.1476769525966463

>  <Volume_score>  (1) 
0.2800795492210806

>  <Feature_score>  (1) 
0.01527435597221197

$$$$
