DOCK.F40.P1t31/L1009_ligand.pdbt
     RDKit          3D

 34 38  0  0  0  0  0  0  0  0999 V2000
   -1.0160   38.1310   24.6450 C   0  0  0  0  0  3  0  0  0  0  0  0
   -0.5640   39.2980   21.6980 C   0  0  0  0  0  1  0  0  0  0  0  0
    0.4520   39.1200   22.7790 C   0  0  0  0  0  0  0  0  0  0  0  0
    0.2640   38.6150   24.0470 C   0  0  0  0  0  0  0  0  0  0  0  0
    1.4770   38.6580   24.6220 N   0  0  0  0  0  0  0  0  0  0  0  0
    2.4000   39.1540   23.7980 C   0  0  0  0  0  0  0  0  0  0  0  0
    3.7730   39.4000   23.9080 C   0  0  0  0  0  3  0  0  0  0  0  0
    4.4370   39.9370   22.8250 C   0  0  0  0  0  3  0  0  0  0  0  0
    3.8140   40.2430   21.6380 C   0  0  0  0  0  0  0  0  0  0  0  0
    4.5280   40.7730   20.6000 F   0  0  0  0  0  0  0  0  0  0  0  0
    2.4640   40.0000   21.5330 C   0  0  0  0  0  3  0  0  0  0  0  0
    1.7750   39.4590   22.6090 C   0  0  0  0  0  0  0  0  0  0  0  0
    1.7210   38.3470   25.6040 H   0  0  0  0  0  0  0  0  0  0  0  0
   -1.2670   36.6970   24.3920 C   0  0  0  0  0  0  0  0  0  0  0  0
   -2.0830   36.1070   23.5500 C   0  0  0  0  0  0  0  0  0  0  0  0
   -2.9630   36.7340   22.6330 O   0  0  0  0  0  0  0  0  0  0  0  0
   -1.9780   34.6380   23.6660 C   0  0  0  0  0  3  0  0  0  0  0  0
   -1.0040   34.3980   24.6340 O   0  0  0  0  0  0  0  0  0  0  0  0
   -0.5570   35.6130   25.1060 C   0  0  0  0  0  0  0  0  0  0  0  0
    0.3160   35.7340   26.0030 O   0  0  0  0  0  0  0  0  0  0  0  0
   -3.9430   36.4630   22.7400 H   0  0  0  0  0  0  0  0  0  0  0  0
   -1.4930   34.0000   22.3770 C   0  0  0  0  0  2  0  0  0  0  0  0
   -2.5750   34.0620   21.3610 C   0  0  0  0  0  0  0  0  0  0  0  0
   -2.4000   34.7740   20.1960 C   0  0  0  0  0  3  0  0  0  0  0  0
   -3.3900   34.8540   19.2260 C   0  0  0  0  0  3  0  0  0  0  0  0
   -4.6040   34.2000   19.4290 C   0  0  0  0  0  3  0  0  0  0  0  0
   -4.7630   33.4950   20.5940 C   0  0  0  0  0  3  0  0  0  0  0  0
   -3.7780   33.4160   21.5540 C   0  0  0  0  0  3  0  0  0  0  0  0
   -1.1230   38.4950   26.0690 C   0  0  0  0  0  0  0  0  0  0  0  0
   -0.2500   39.4010   26.6710 C   0  0  0  0  0  3  0  0  0  0  0  0
   -0.4000   39.6940   28.0080 C   0  0  0  0  0  3  0  0  0  0  0  0
   -1.3910   39.1170   28.7730 C   0  0  0  0  0  3  0  0  0  0  0  0
   -2.2670   38.2100   28.1800 C   0  0  0  0  0  3  0  0  0  0  0  0
   -2.1030   37.9330   26.8590 C   0  0  0  0  0  3  0  0  0  0  0  0
 25 26  1  0
 25 24  2  0
 26 27  2  0
 24 23  1  0
 27 28  1  0
 10  9  1  0
 23 28  2  0
 23 22  1  0
 11  9  1  0
 11 12  2  0
  9  8  2  0
  2  3  1  0
 22 17  1  0
 12  3  1  0
 12  6  1  0
 16 21  1  0
 16 15  1  0
  3  4  2  0
  8  7  1  0
 15 17  1  0
 15 14  2  0
 17 18  1  0
  6  7  2  0
  6  5  1  0
  4  5  1  0
  4  1  1  0
 14  1  1  0
 14 19  1  0
  5 13  1  0
 18 19  1  0
  1 29  1  0
 19 20  2  0
 29 30  2  0
 29 34  1  0
 30 31  1  0
 34 33  2  0
 31 32  2  0
 33 32  1  0
M  RAD  8   1   2   2   2   7   2   8   2  11   2  17   2  22   3  24   2
M  RAD  8  25   2  26   2  27   2  28   2  30   2  31   2  32   2  33   2
M  RAD  1  34   2
M  END
>  <_TriposChargeType>  (1) 
GASTEIGER

>  <SuCOS_score>  (1) 
0.24099676123236824

>  <Volume_score>  (1) 
0.3356913894108544

>  <Feature_score>  (1) 
0.1463021330538821

$$$$
