DOCK.F40.P1t31/L1012_ligand.pdbt
     RDKit          3D

 30 32  0  0  0  0  0  0  0  0999 V2000
   -2.5500   36.6820   23.5790 N   0  0  0  0  0  0  0  0  0  0  0  0
   -3.4560   36.7180   23.0480 H   0  0  0  0  0  0  0  0  0  0  0  0
   -0.3770   33.0930   23.5950 C   0  0  0  0  0  0  0  0  0  0  0  0
   -0.1450   34.0230   24.5850 C   0  0  0  0  0  3  0  0  0  0  0  0
   -0.8720   35.2090   24.5730 C   0  0  0  0  0  3  0  0  0  0  0  0
   -1.8100   35.4840   23.6110 C   0  0  0  0  0  0  0  0  0  0  0  0
   -2.0260   34.5410   22.6310 C   0  0  0  0  0  0  0  0  0  0  0  0
   -1.3270   33.3510   22.6040 C   0  0  0  0  0  3  0  0  0  0  0  0
   -3.2110   34.8530   21.3850 S   0  0  2  0  0  6  0  0  0  0  0  0
   -2.6010   36.0770   20.2410 C   0  0  0  0  0  1  0  0  0  0  0  0
   -4.4850   35.4310   21.9750 O   0  0  0  0  0  0  0  0  0  0  0  0
   -3.5100   33.6200   20.5910 O   0  0  0  0  0  0  0  0  0  0  0  0
    0.3660   31.8380   23.5750 C   0  0  0  0  0  0  0  0  0  0  0  0
    0.2000   31.0030   22.6550 O   0  0  0  0  0  0  0  0  0  0  0  0
    2.6530   31.7990   24.4000 C   0  0  0  0  0  1  0  0  0  0  0  0
    1.2660   31.5570   24.5780 O   0  0  0  0  0  0  0  0  0  0  0  0
   -2.0010   38.0720   24.3850 S   0  0  2  0  0  6  0  0  0  0  0  0
   -1.9960   37.8580   25.8730 O   0  0  0  0  0  0  0  0  0  0  0  0
   -2.9740   39.2000   24.1340 O   0  0  0  0  0  0  0  0  0  0  0  0
   -0.3730   38.5520   23.9510 C   0  0  0  0  0  0  0  0  0  0  0  0
    1.0000   38.5510   24.9510 S   0  0  0  0  0  0  0  0  0  0  0  0
    2.1580   39.1310   23.8420 C   0  0  0  0  0  0  0  0  0  0  0  0
    3.5310   39.4000   23.9320 C   0  0  0  0  0  3  0  0  0  0  0  0
    4.2270   39.8780   22.8310 C   0  0  0  0  0  3  0  0  0  0  0  0
    3.4830   40.0550   21.6950 C   0  0  0  0  0  0  0  0  0  0  0  0
    4.1610   40.5270   20.6000 F   0  0  0  0  0  0  0  0  0  0  0  0
    2.1480   39.8000   21.5840 C   0  0  0  0  0  3  0  0  0  0  0  0
    1.4300   39.3120   22.7010 C   0  0  0  0  0  0  0  0  0  0  0  0
    0.1110   39.0120   22.7570 C   0  0  0  0  0  0  0  0  0  0  0  0
   -0.8700   39.1460   21.5940 C   0  0  0  0  0  1  0  0  0  0  0  0
  9 10  1  6
 12  9  2  0
 26 25  1  0
  9 11  2  0
  9  7  1  0
 27 25  2  0
 27 28  1  0
 30 29  1  0
 25 24  1  0
  8  7  1  0
  8  3  2  0
  7  6  2  0
 14 13  2  0
 28 29  1  0
 28 22  2  0
 29 20  2  0
 24 23  2  0
  2  1  1  0
 13  3  1  0
 13 16  1  0
  1  6  1  0
 17  1  1  6
  3  4  1  0
  6  5  1  0
 22 23  1  0
 22 21  1  0
 20 17  1  0
 20 21  1  0
 19 17  2  0
 17 18  2  0
 15 16  1  0
  5  4  2  0
M  RAD  8   4   2   5   2   8   2  10   2  15   2  23   2  24   2  27   2
M  RAD  1  30   2
M  END
>  <_TriposChargeType>  (1) 
GASTEIGER

>  <SuCOS_score>  (1) 
0.25073440604186065

>  <Volume_score>  (1) 
0.3258289896861484

>  <Feature_score>  (1) 
0.1756398223975729

$$$$
