DOCK.F40.P1t31/L1011_ligand.pdbt
     RDKit          3D

 30 33  0  0  0  0  0  0  0  0999 V2000
   -4.7570   37.5270   21.6040 C   0  0  0  0  0  0  0  0  0  0  0  0
   -3.6670   38.3780   21.7490 C   0  0  0  0  0  0  0  0  0  0  0  0
   -2.6290   37.8520   21.0270 N   0  0  0  0  0  4  0  0  0  0  0  0
   -3.0220   36.7110   20.4320 C   0  0  0  0  0  0  0  0  0  0  0  0
   -2.4010   35.7960   19.5990 C   0  0  0  0  0  3  0  0  0  0  0  0
   -3.0460   34.6790   19.1060 C   0  0  0  0  0  3  0  0  0  0  0  0
   -4.3640   34.4970   19.4790 C   0  0  0  0  0  0  0  0  0  0  0  0
   -5.0050   33.4010   19.0050 F   0  0  0  0  0  0  0  0  0  0  0  0
   -4.9920   35.3920   20.3020 C   0  0  0  0  0  3  0  0  0  0  0  0
   -4.3310   36.5030   20.7830 C   0  0  0  0  0  0  0  0  0  0  0  0
   -3.7410   39.6130   22.5060 C   0  0  0  0  0  0  0  0  0  0  0  0
   -2.9990   39.7980   23.5230 O   0  0  0  0  0  1  0  0  0  0  0  0
   -4.6020   40.6500   22.1850 O   0  0  0  0  0  0  0  0  0  0  0  0
   -6.1230   37.6730   22.1660 C   0  0  0  0  0  2  0  0  0  0  0  0
   -8.9230   35.6260   20.4740 C   0  0  0  0  0  1  0  0  0  0  0  0
   -7.9550   36.0220   21.4920 N   0  0  0  0  0  0  0  0  0  0  0  0
   -7.8930   35.2230   22.6760 C   0  0  0  0  0  1  0  0  0  0  0  0
   -7.1530   37.1530   21.2550 C   0  0  0  0  0  0  0  0  0  0  0  0
   -7.3130   37.8000   20.1660 O   0  0  0  0  0  0  0  0  0  0  0  0
   -1.3150   38.4560   21.0070 C   0  0  0  0  0  2  0  0  0  0  0  0
   -0.6560   38.2610   22.3240 C   0  0  0  0  0  0  0  0  0  0  0  0
   -1.2600   37.4520   23.2820 C   0  0  0  0  0  3  0  0  0  0  0  0
   -0.6140   37.1530   24.4730 C   0  0  0  0  0  3  0  0  0  0  0  0
    0.6360   37.6630   24.7050 C   0  0  0  0  0  3  0  0  0  0  0  0
    1.2800   38.4680   23.7980 C   0  0  0  0  0  0  0  0  0  0  0  0
    2.5370   39.0020   24.1070 C   0  0  0  0  0  3  0  0  0  0  0  0
    3.1180   39.8460   23.1850 C   0  0  0  0  0  3  0  0  0  0  0  0
    2.5210   40.1730   22.0020 C   0  0  0  0  0  3  0  0  0  0  0  0
    1.2570   39.6080   21.7390 C   0  0  0  0  0  3  0  0  0  0  0  0
    0.6210   38.7600   22.6110 C   0  0  0  0  0  0  0  0  0  0  0  0
  8  7  1  0
  6  7  2  0
  6  5  1  0
  7  9  1  0
  5  4  2  0
 19 18  2  0
  9 10  2  0
  4 10  1  0
  4  3  1  0
 15 16  1  0
 10  1  1  0
 20  3  1  0
 20 21  1  0
  3  2  1  0
 18 16  1  0
 18 14  1  0
 16 17  1  0
  1  2  2  0
  1 14  1  0
 29 28  1  0
 29 30  2  0
  2 11  1  0
 28 27  2  0
 13 11  2  0
 21 30  1  0
 21 22  2  0
 11 12  1  0
 30 25  1  0
 27 26  1  0
 22 23  1  0
 25 26  2  0
 25 24  1  0
 23 24  2  0
M  RAD  8   5   2   6   2   9   2  14   3  15   2  17   2  20   3  22   2
M  CHG  2   3   1  12  -1
M  RAD  6  23   2  24   2  26   2  27   2  28   2  29   2
M  END
>  <_TriposChargeType>  (1) 
GASTEIGER

>  <SuCOS_score>  (1) 
0.23856772886887478

>  <Volume_score>  (1) 
0.39781625675526633

>  <Feature_score>  (1) 
0.07931920098248324

$$$$
