DOCK.F40.P1t31/L1016_ligand.pdbt
     RDKit          3D

 29 32  0  0  0  0  0  0  0  0999 V2000
   -5.1090   36.7920   21.3850 C   0  0  0  0  0  0  0  0  0  0  0  0
   -4.2900   37.8360   21.8460 C   0  0  0  0  0  0  0  0  0  0  0  0
   -3.0940   37.7350   21.3050 N   0  0  0  0  0  4  0  0  0  0  0  0
   -3.1330   36.5910   20.4700 C   0  0  0  0  0  0  0  0  0  0  0  0
   -2.2000   36.0040   19.6660 C   0  0  0  0  0  3  0  0  0  0  0  0
   -2.4660   34.8850   18.9310 C   0  0  0  0  0  3  0  0  0  0  0  0
   -3.7240   34.3220   19.0000 C   0  0  0  0  0  3  0  0  0  0  0  0
   -4.6940   34.8760   19.7920 C   0  0  0  0  0  3  0  0  0  0  0  0
   -4.3730   36.0250   20.5290 C   0  0  0  0  0  0  0  0  0  0  0  0
   -4.7630   38.8500   22.7800 C   0  0  0  0  0  0  0  0  0  0  0  0
   -5.1470   38.5990   23.9400 O   0  0  0  0  0  1  0  0  0  0  0  0
   -4.8000   40.1810   22.4000 O   0  0  0  0  0  0  0  0  0  0  0  0
   -6.5190   36.5290   21.7460 C   0  0  0  0  0  2  0  0  0  0  0  0
   -9.0330   35.7390   18.9200 C   0  0  0  0  0  1  0  0  0  0  0  0
   -8.1730   35.5850   20.0690 N   0  0  0  0  0  0  0  0  0  0  0  0
   -8.0900   34.3220   20.7410 C   0  0  0  0  0  1  0  0  0  0  0  0
   -7.4100   36.6720   20.5590 C   0  0  0  0  0  0  0  0  0  0  0  0
   -7.4670   37.8000   20.0000 O   0  0  0  0  0  0  0  0  0  0  0  0
   -1.9040   38.4940   21.3060 C   0  0  0  0  0  2  0  0  0  0  0  0
   -0.9170   38.2490   22.4240 C   0  0  0  0  0  0  0  0  0  0  0  0
   -1.3180   37.4880   23.4910 C   0  0  0  0  0  3  0  0  0  0  0  0
    0.0000   37.5800   24.5610 S   0  0  0  0  0  0  0  0  0  0  0  0
    1.0390   38.5710   23.6490 C   0  0  0  0  0  0  0  0  0  0  0  0
    2.3410   39.0480   23.8610 C   0  0  0  0  0  3  0  0  0  0  0  0
    2.9790   39.8000   22.9060 C   0  0  0  0  0  3  0  0  0  0  0  0
    2.2690   40.0460   21.7620 C   0  0  0  0  0  0  0  0  0  0  0  0
    2.8800   40.7910   20.8020 F   0  0  0  0  0  0  0  0  0  0  0  0
    1.0020   39.5900   21.5420 C   0  0  0  0  0  3  0  0  0  0  0  0
    0.3180   38.8150   22.5090 C   0  0  0  0  0  0  0  0  0  0  0  0
 14 15  1  0
  6  7  2  0
  6  5  1  0
  7  8  1  0
  5  4  2  0
  8  9  2  0
 18 17  2  0
 15 17  1  0
 15 16  1  0
  4  9  1  0
  4  3  1  0
  9  1  1  0
 17 13  1  0
 27 26  1  0
  3 19  1  0
  3  2  1  0
 19 20  1  0
  1 13  1  0
  1  2  2  0
 28 26  1  0
 28 29  2  0
 26 25  2  0
  2 10  1  0
 12 10  2  0
 20 29  1  0
 20 21  2  0
 29 23  1  0
 10 11  1  0
 25 24  1  0
 21 22  1  0
 23 24  2  0
 23 22  1  0
M  RAD  8   5   2   6   2   7   2   8   2  13   3  14   2  16   2  19   3
M  CHG  2   3   1  11  -1
M  RAD  4  21   2  24   2  25   2  28   2
M  END
>  <_TriposChargeType>  (1) 
GASTEIGER

>  <SuCOS_score>  (1) 
0.22240395907980107

>  <Volume_score>  (1) 
0.38141592920353984

>  <Feature_score>  (1) 
0.06339198895606231

$$$$
