DOCK.F40.P2hvx/L1008_ligand.pdbt
     RDKit          3D

 32 36  0  0  0  0  0  0  0  0999 V2000
   -1.7890   38.6770   22.9700 C   0  0  0  0  0  3  0  0  0  0  0  0
    5.5850   39.4880   24.2080 C   0  0  0  0  0  1  0  0  0  0  0  0
    4.3290   39.5590   23.3990 C   0  0  0  0  0  0  0  0  0  0  0  0
    4.4050   40.0230   22.1050 C   0  0  0  0  0  3  0  0  0  0  0  0
    3.2270   40.0760   21.3820 C   0  0  0  0  0  3  0  0  0  0  0  0
    2.0230   39.6740   21.9560 C   0  0  0  0  0  0  0  0  0  0  0  0
    0.4150   39.6000   21.3930 S   0  0  0  0  0  0  0  0  0  0  0  0
   -0.3460   38.9870   22.7850 C   0  0  0  0  0  0  0  0  0  0  0  0
    0.6970   38.8550   23.6680 C   0  0  0  0  0  0  0  0  0  0  0  0
    0.4000   38.3180   25.0670 C   0  0  0  0  0  1  0  0  0  0  0  0
    1.9210   39.2100   23.2390 C   0  0  0  0  0  0  0  0  0  0  0  0
    3.1380   39.1700   23.9400 C   0  0  0  0  0  3  0  0  0  0  0  0
   -2.6850   39.7500   22.4610 C   0  0  0  0  0  0  0  0  0  0  0  0
   -2.5980   40.8590   21.8000 C   0  0  0  0  0  0  0  0  0  0  0  0
   -1.5160   41.5640   21.2440 O   0  0  0  0  0  0  0  0  0  0  0  0
   -4.0180   41.1260   21.8310 C   0  0  1  0  0  0  0  0  0  0  0  0
   -4.7550   41.0010   20.5100 C   0  0  0  0  0  1  0  0  0  0  0  0
   -4.1120   39.8860   22.5730 C   0  0  0  0  0  0  0  0  0  0  0  0
   -5.0770   39.2190   23.0950 O   0  0  0  0  0  0  0  0  0  0  0  0
   -1.3480   41.4220   20.2570 H   0  0  0  0  0  0  0  0  0  0  0  0
   -4.4500   42.2830   22.6500 C   0  0  0  0  0  0  0  0  0  0  0  0
   -4.3990   42.2790   24.0230 C   0  0  0  0  0  3  0  0  0  0  0  0
   -4.8070   43.3640   24.7810 C   0  0  0  0  0  3  0  0  0  0  0  0
   -5.2770   44.4820   24.1530 C   0  0  0  0  0  3  0  0  0  0  0  0
   -5.3340   44.5000   22.7760 C   0  0  0  0  0  3  0  0  0  0  0  0
   -4.9240   43.4090   22.0190 C   0  0  0  0  0  3  0  0  0  0  0  0
   -2.0800   37.4460   22.1860 C   0  0  0  0  0  0  0  0  0  0  0  0
   -2.3380   37.4870   20.8330 C   0  0  0  0  0  3  0  0  0  0  0  0
   -2.6000   36.3320   20.1680 C   0  0  0  0  0  3  0  0  0  0  0  0
   -2.6140   35.1340   20.8060 C   0  0  0  0  0  3  0  0  0  0  0  0
   -2.3520   35.1000   22.1770 C   0  0  0  0  0  3  0  0  0  0  0  0
   -2.0830   36.2500   22.8810 C   0  0  0  0  0  3  0  0  0  0  0  0
 29 30  1  0
 29 28  2  0
 20 15  1  0
 16 17  1  6
 30 31  2  0
 28 27  1  0
 15 14  1  0
  5  6  2  0
  5  4  1  0
  7  6  1  0
  7  8  1  0
 14 16  1  0
 14 13  2  0
 16 18  1  0
 16 21  1  0
  6 11  1  0
 26 21  1  0
 26 25  2  0
  4  3  2  0
 31 32  1  0
 27 32  2  0
 27  1  1  0
 13 18  1  0
 13  1  1  0
 18 19  2  0
 21 22  2  0
 25 24  1  0
  8  1  1  0
  8  9  2  0
 11  9  1  0
 11 12  2  0
  3 12  1  0
  3  2  1  0
  9 10  1  0
 22 23  1  0
 24 23  2  0
M  RAD  8   1   2   2   2   4   2   5   2  10   2  12   2  17   2  22   2
M  RAD  8  23   2  24   2  25   2  26   2  28   2  29   2  30   2  31   2
M  RAD  1  32   2
M  END
>  <_TriposChargeType>  (1) 
GASTEIGER

>  <SuCOS_score>  (1) 
0.3903851149880591

>  <Volume_score>  (1) 
0.5240304938680809

>  <Feature_score>  (1) 
0.25673973610803735

$$$$
