DOCK.F40.P2hvx/L1006_ligand.pdbt
     RDKit          3D

 42 46  0  0  0  0  0  0  0  0999 V2000
   -3.2450   37.6070   22.0280 C   0  0  0  0  0  3  0  0  0  0  0  0
   -0.9740   37.8130   23.2930 C   0  0  0  0  0  0  0  0  0  0  0  0
   -1.9050   38.0890   22.2810 C   0  0  0  0  0  0  0  0  0  0  0  0
   -1.2250   38.8620   21.3830 N   0  0  0  0  0  0  0  0  0  0  0  0
    0.0260   39.0680   21.7530 C   0  0  0  0  0  0  0  0  0  0  0  0
    1.0450   39.7810   21.1110 C   0  0  0  0  0  3  0  0  0  0  0  0
    2.2910   39.8510   21.6690 C   0  0  0  0  0  0  0  0  0  0  0  0
    3.3990   40.6090   21.0000 C   0  0  0  0  0  1  0  0  0  0  0  0
    2.4800   39.2000   22.8620 C   0  0  0  0  0  3  0  0  0  0  0  0
    1.4780   38.5000   23.4940 C   0  0  0  0  0  3  0  0  0  0  0  0
    0.2140   38.4180   22.9490 C   0  0  0  0  0  0  0  0  0  0  0  0
   -1.6310   39.2620   20.4840 H   0  0  0  0  0  0  0  0  0  0  0  0
   -1.2860   37.1160   24.5140 C   0  0  0  0  0  2  0  0  0  0  0  0
   -1.2970   35.6120   24.5340 C   0  0  1  0  0  0  0  0  0  0  0  0
   -0.4000   35.0590   23.4020 C   0  0  0  0  0  1  0  0  0  0  0  0
   -0.8510   34.9830   25.8050 C   0  0  0  0  0  1  0  0  0  0  0  0
   -5.1370   35.2280   24.7180 C   0  0  0  0  0  1  0  0  0  0  0  0
   -3.7260   35.6860   24.9490 C   0  0  0  0  0  0  0  0  0  0  0  0
   -3.4990   36.6000   25.7800 O   0  0  0  0  0  0  0  0  0  0  0  0
   -2.6460   35.0770   24.2190 N   0  0  0  0  0  0  0  0  0  0  0  0
   -2.8140   34.3300   23.5360 H   0  0  0  0  0  0  0  0  0  0  0  0
   -4.1880   38.7740   21.8500 C   0  0  0  0  0  0  0  0  0  0  0  0
   -4.1800   39.9170   21.2410 C   0  0  0  0  0  0  0  0  0  0  0  0
   -3.2230   40.5720   20.4490 O   0  0  0  0  0  0  0  0  0  0  0  0
   -5.5290   40.3070   21.6650 C   0  0  1  0  0  0  0  0  0  0  0  0
   -6.5720   40.4010   20.5940 C   0  0  0  0  0  1  0  0  0  0  0  0
   -5.5260   39.0150   22.3500 C   0  0  0  0  0  0  0  0  0  0  0  0
   -6.3390   38.3760   23.0700 O   0  0  0  0  0  0  0  0  0  0  0  0
   -3.3970   40.5600   19.4450 H   0  0  0  0  0  0  0  0  0  0  0  0
   -5.4380   41.5080   22.5540 C   0  0  0  0  0  0  0  0  0  0  0  0
   -5.4880   41.4060   23.9340 C   0  0  0  0  0  3  0  0  0  0  0  0
   -5.4000   42.5320   24.7400 C   0  0  0  0  0  3  0  0  0  0  0  0
   -5.2610   43.7850   24.1840 C   0  0  0  0  0  0  0  0  0  0  0  0
   -5.1660   45.0120   25.0520 C   0  0  0  0  0  1  0  0  0  0  0  0
   -5.2090   43.9170   22.8310 C   0  0  0  0  0  3  0  0  0  0  0  0
   -5.2980   42.7840   22.0480 C   0  0  0  0  0  3  0  0  0  0  0  0
   -3.5220   36.5780   21.0470 C   0  0  0  0  0  0  0  0  0  0  0  0
   -2.5350   36.1660   20.2000 C   0  0  0  0  0  3  0  0  0  0  0  0
   -2.7540   35.2000   19.2410 C   0  0  0  0  0  3  0  0  0  0  0  0
   -3.9950   34.6000   19.0930 C   0  0  0  0  0  3  0  0  0  0  0  0
   -5.0010   34.9990   19.9340 C   0  0  0  0  0  3  0  0  0  0  0  0
   -4.7700   35.9630   20.8870 C   0  0  0  0  0  3  0  0  0  0  0  0
 40 39  1  0
 40 41  2  0
 39 38  2  0
 29 24  1  0
 41 42  1  0
 38 37  1  0
 24 23  1  0
 12  4  1  0
 25 26  1  6
 42 37  2  0
  8  7  1  0
 37  1  1  0
  6  7  2  0
  6  5  1  0
 23 25  1  0
 23 22  2  0
  4  5  1  0
  4  3  1  0
 25 27  1  0
 25 30  1  0
  7  9  1  0
  5 11  2  0
 22  1  1  0
 22 27  1  0
  1  3  1  0
 36 30  1  0
 36 35  2  0
  3  2  2  0
 27 28  2  0
 30 31  2  0
 35 33  1  0
  9 10  2  0
 11  2  1  0
 11 10  1  0
  2 13  1  0
 14 15  1  6
 21 20  1  0
 31 32  1  0
 33 32  2  0
 33 34  1  0
 20 14  1  0
 20 18  1  0
 13 14  1  0
 14 16  1  0
 17 18  1  0
 18 19  2  0
M  RAD  8   1   2   6   2   8   2   9   2  10   2  13   3  15   2  16   2
M  RAD  8  17   2  26   2  31   2  32   2  34   2  35   2  36   2  38   2
M  RAD  4  39   2  40   2  41   2  42   2
M  END
>  <_TriposChargeType>  (1) 
GASTEIGER

>  <SuCOS_score>  (1) 
0.3439001992947816

>  <Volume_score>  (1) 
0.539829853054911

>  <Feature_score>  (1) 
0.14797054553465216

$$$$
