DOCK.F40.P2hvx/L1002_ligand.pdbt
     RDKit          3D

 40 44  0  0  0  0  0  0  0  0999 V2000
   -0.1330   35.5790   26.0020 C   0  0  0  0  0  3  0  0  0  0  0  0
    1.7660   30.7260   22.9940 C   0  0  0  0  0  0  0  0  0  0  0  0
    2.1020   30.2330   24.2400 C   0  0  0  0  0  3  0  0  0  0  0  0
    1.8600   31.0020   25.3430 C   0  0  0  0  0  3  0  0  0  0  0  0
    1.2830   32.2600   25.1910 C   0  0  0  0  0  0  0  0  0  0  0  0
    0.9250   33.2420   26.0850 C   0  0  0  0  0  0  0  0  0  0  0  0
    0.3810   34.3150   25.4100 C   0  0  0  0  0  0  0  0  0  0  0  0
    0.4000   34.0030   24.0970 N   0  0  0  0  0  0  0  0  0  0  0  0
    0.9400   32.7660   23.9420 C   0  0  0  0  0  0  0  0  0  0  0  0
    1.1920   31.9730   22.8320 C   0  0  0  0  0  3  0  0  0  0  0  0
    0.0740   34.5590   23.2760 H   0  0  0  0  0  0  0  0  0  0  0  0
    3.2000   28.9100   22.1380 C   0  0  0  0  0  1  0  0  0  0  0  0
    2.0500   29.8460   21.8250 C   0  0  0  0  0  2  0  0  0  0  0  0
    1.1070   33.1470   27.5430 C   0  0  0  0  0  2  0  0  0  0  0  0
    2.3860   32.5110   27.9540 C   0  0  0  0  0  2  0  0  0  0  0  0
    2.7900   33.0080   29.2430 N   0  0  0  0  0  0  0  0  0  0  0  0
    4.0560   32.8390   29.8170 C   0  0  0  0  0  0  0  0  0  0  0  0
    4.3990   33.3990   31.1780 C   0  0  0  0  0  1  0  0  0  0  0  0
    4.9350   32.2030   29.1780 O   0  0  0  0  0  0  0  0  0  0  0  0
    2.0640   33.5460   29.7990 H   0  0  0  0  0  0  0  0  0  0  0  0
   -0.2060   36.6650   24.9660 C   0  0  0  0  0  0  0  0  0  0  0  0
    0.3730   37.8270   24.9390 C   0  0  0  0  0  0  0  0  0  0  0  0
    1.2320   38.3420   25.9200 O   0  0  0  0  0  0  0  0  0  0  0  0
    0.0250   38.5960   23.7200 C   0  0  0  0  0  3  0  0  0  0  0  0
   -0.7120   37.6400   22.8440 C   0  0  0  0  0  2  0  0  0  0  0  0
   -1.0120   36.5170   23.7610 C   0  0  0  0  0  0  0  0  0  0  0  0
   -1.8450   35.5920   23.5030 O   0  0  0  0  0  0  0  0  0  0  0  0
    2.1110   38.7300   25.5950 H   0  0  0  0  0  0  0  0  0  0  0  0
    1.2300   39.1330   23.0430 C   0  0  0  0  0  0  0  0  0  0  0  0
    1.1590   39.4960   21.7190 C   0  0  0  0  0  3  0  0  0  0  0  0
    2.2640   40.0010   21.0470 C   0  0  0  0  0  3  0  0  0  0  0  0
    3.4620   40.1410   21.7260 C   0  0  0  0  0  3  0  0  0  0  0  0
    3.5310   39.7770   23.0560 C   0  0  0  0  0  3  0  0  0  0  0  0
    2.4220   39.2780   23.7050 C   0  0  0  0  0  3  0  0  0  0  0  0
   -1.4530   35.3400   26.6240 C   0  0  0  0  0  0  0  0  0  0  0  0
   -1.9960   36.3320   27.3990 C   0  0  0  0  0  3  0  0  0  0  0  0
   -3.2170   36.1700   28.0050 C   0  0  0  0  0  3  0  0  0  0  0  0
   -3.9170   34.9960   27.8400 C   0  0  0  0  0  3  0  0  0  0  0  0
   -3.3520   34.0130   27.0570 C   0  0  0  0  0  3  0  0  0  0  0  0
   -2.1250   34.1730   26.4460 C   0  0  0  0  0  3  0  0  0  0  0  0
 31 30  2  0
 31 32  1  0
 30 29  1  0
 32 33  2  0
 13 12  1  0
 13  2  1  0
 10  2  2  0
 10  9  1  0
 25 24  1  0
 25 26  1  0
  2  3  1  0
 29 34  2  0
 29 24  1  0
 33 34  1  0
 11  8  1  0
 27 26  2  0
 24 22  1  0
 26 21  1  0
  9  8  1  0
  9  5  2  0
  8  7  1  0
  3  4  2  0
 22 21  2  0
 22 23  1  0
 21  1  1  0
  5  4  1  0
  5  6  1  0
  7  1  1  0
  7  6  2  0
 28 23  1  0
  1 35  1  0
  6 14  1  0
 40 35  1  0
 40 39  2  0
 35 36  2  0
 39 38  1  0
 36 37  1  0
 14 15  1  0
 38 37  2  0
 15 16  1  0
 19 17  2  0
 16 20  1  0
 16 17  1  0
 17 18  1  0
M  RAD  8   1   2   3   2   4   2  10   2  12   2  13   3  14   3  15   3
M  RAD  8  18   2  24   2  25   3  30   2  31   2  32   2  33   2  34   2
M  RAD  5  36   2  37   2  38   2  39   2  40   2
M  END
>  <_TriposChargeType>  (1) 
GASTEIGER

>  <SuCOS_score>  (1) 
0.14183147577816538

>  <Volume_score>  (1) 
0.20344408875151787

>  <Feature_score>  (1) 
0.08021886280481288

$$$$
