DOCK.F40.P2hvx/L1007_ligand.pdbt
     RDKit          3D

 31 35  0  0  0  0  0  0  0  0999 V2000
   -2.7450   38.6510   22.3990 C   0  0  0  0  0  3  0  0  0  0  0  0
   -1.3120   38.8920   22.5250 C   0  0  0  0  0  0  0  0  0  0  0  0
   -0.7080   38.4720   23.7240 C   0  0  0  0  0  3  0  0  0  0  0  0
    0.6260   38.6310   23.9880 C   0  0  0  0  0  3  0  0  0  0  0  0
    1.4240   39.2310   23.0400 C   0  0  0  0  0  0  0  0  0  0  0  0
    2.7830   39.4000   23.2930 C   0  0  0  0  0  3  0  0  0  0  0  0
    3.5730   40.0000   22.3450 C   0  0  0  0  0  3  0  0  0  0  0  0
    2.9850   40.4120   21.1720 C   0  0  0  0  0  3  0  0  0  0  0  0
    1.6490   40.2490   20.9170 C   0  0  0  0  0  3  0  0  0  0  0  0
    0.8300   39.6440   21.8620 C   0  0  0  0  0  0  0  0  0  0  0  0
   -0.5140   39.4820   21.5990 C   0  0  0  0  0  3  0  0  0  0  0  0
   -5.5270   41.5580   20.4050 C   0  0  0  0  0  1  0  0  0  0  0  0
   -4.7490   41.4620   21.7270 C   0  0  2  0  0  0  0  0  0  0  0  0
   -3.3630   41.1480   21.5070 C   0  0  0  0  0  0  0  0  0  0  0  0
   -2.4040   41.7670   21.0070 O   0  0  0  0  0  0  0  0  0  0  0  0
   -3.5740   39.8590   22.0960 C   0  0  0  0  0  0  0  0  0  0  0  0
   -4.8410   40.1440   22.2970 C   0  0  0  0  0  0  0  0  0  0  0  0
   -5.9220   39.4450   22.8590 O   0  0  0  0  0  0  0  0  0  0  0  0
   -6.2470   38.6330   22.3470 H   0  0  0  0  0  0  0  0  0  0  0  0
   -5.0580   42.6020   22.6210 C   0  0  0  0  0  0  0  0  0  0  0  0
   -6.0740   43.4540   22.2540 C   0  0  0  0  0  3  0  0  0  0  0  0
   -6.4320   44.5450   23.0260 C   0  0  0  0  0  3  0  0  0  0  0  0
   -5.7680   44.8070   24.1980 C   0  0  0  0  0  3  0  0  0  0  0  0
   -4.7500   43.9510   24.5620 C   0  0  0  0  0  3  0  0  0  0  0  0
   -4.3990   42.8620   23.7830 C   0  0  0  0  0  3  0  0  0  0  0  0
   -2.9840   37.5180   21.4890 C   0  0  0  0  0  0  0  0  0  0  0  0
   -4.2220   36.9220   21.4000 C   0  0  0  0  0  3  0  0  0  0  0  0
   -4.4830   35.8570   20.5790 C   0  0  0  0  0  3  0  0  0  0  0  0
   -3.4740   35.3510   19.8000 C   0  0  0  0  0  3  0  0  0  0  0  0
   -2.2280   35.9390   19.8780 C   0  0  0  0  0  3  0  0  0  0  0  0
   -1.9580   37.0140   20.7080 C   0  0  0  0  0  3  0  0  0  0  0  0
 29 30  2  0
 29 28  1  0
 30 31  1  0
 13 12  1  6
 28 27  2  0
 31 26  2  0
  9  8  2  0
  9 10  1  0
 15 14  2  0
  8  7  1  0
 27 26  1  0
 26  1  1  0
 14 13  1  0
 14 16  1  0
 11 10  2  0
 11  2  1  0
 13 17  1  0
 13 20  1  0
 10  5  1  0
 16 17  2  0
 16  1  1  0
 21 20  2  0
 21 22  1  0
 17 18  1  0
  7  6  2  0
 19 18  1  0
  1  2  1  0
  2  3  2  0
 20 25  1  0
 22 23  2  0
  5  6  1  0
  5  4  2  0
  3  4  1  0
 25 24  2  0
 23 24  1  0
M  RAD  8   1   2   3   2   4   2   6   2   7   2   8   2   9   2  11   2
M  RAD  8  12   2  21   2  22   2  23   2  24   2  25   2  27   2  28   2
M  RAD  3  29   2  30   2  31   2
M  END
>  <_TriposChargeType>  (1) 
GASTEIGER

>  <SuCOS_score>  (1) 
0.36850060574489574

>  <Volume_score>  (1) 
0.5340846315324274

>  <Feature_score>  (1) 
0.2029165799573641

$$$$
