DOCK.F40.P2hvx/L1005_ligand.pdbt
     RDKit          3D

 31 34  0  0  0  0  0  0  0  0999 V2000
   -4.3640   38.5660   21.5450 C   0  0  0  0  0  0  0  0  0  0  0  0
   -3.0960   39.1860   21.6030 C   0  0  0  0  0  0  0  0  0  0  0  0
   -2.1640   38.3490   21.1680 N   0  0  0  0  0  4  0  0  0  0  0  0
   -2.7910   37.1590   20.8190 C   0  0  0  0  0  0  0  0  0  0  0  0
   -2.2000   36.0050   20.3500 C   0  0  0  0  0  3  0  0  0  0  0  0
   -3.0390   34.9090   20.1020 C   0  0  0  0  0  3  0  0  0  0  0  0
   -4.3890   35.0190   20.3280 C   0  0  0  0  0  0  0  0  0  0  0  0
   -5.2270   33.9540   20.0860 F   0  0  0  0  0  0  0  0  0  0  0  0
   -4.9370   36.2000   20.8000 C   0  0  0  0  0  3  0  0  0  0  0  0
   -4.1420   37.3050   21.0560 C   0  0  0  0  0  0  0  0  0  0  0  0
   -2.9570   40.5480   22.1190 C   0  0  0  0  0  0  0  0  0  0  0  0
   -3.3150   40.8630   23.3060 O   0  0  0  0  0  1  0  0  0  0  0  0
   -2.4370   41.6000   21.4010 O   0  0  0  0  0  0  0  0  0  0  0  0
   -5.6140   39.2040   21.9710 C   0  0  0  0  0  2  0  0  0  0  0  0
   -7.0340   40.1550   20.1210 C   0  0  0  0  0  0  0  0  0  0  0  0
   -7.4020   38.9830   19.8000 O   0  0  0  0  0  0  0  0  0  0  0  0
   -6.1320   40.2820   21.2110 N   0  0  0  0  0  0  0  0  0  0  0  0
   -5.8590   41.2950   21.4370 H   0  0  0  0  0  0  0  0  0  0  0  0
   -8.6560   41.2020   18.6000 C   0  0  0  0  0  1  0  0  0  0  0  0
   -7.5080   41.2590   19.4160 O   0  0  0  0  0  0  0  0  0  0  0  0
   -0.7250   38.5340   21.0910 C   0  0  0  0  0  2  0  0  0  0  0  0
   -0.1090   38.4700   22.4030 C   0  0  0  0  0  0  0  0  0  0  0  0
   -0.7570   37.8490   23.4600 C   0  0  0  0  0  3  0  0  0  0  0  0
   -0.2100   37.6470   24.7070 C   0  0  0  0  0  3  0  0  0  0  0  0
    1.0770   38.1060   24.8940 C   0  0  0  0  0  3  0  0  0  0  0  0
    1.7600   38.7250   23.8960 C   0  0  0  0  0  0  0  0  0  0  0  0
    3.0130   39.2010   24.1660 C   0  0  0  0  0  3  0  0  0  0  0  0
    3.7400   39.8870   23.2000 C   0  0  0  0  0  3  0  0  0  0  0  0
    3.1520   40.0760   21.9530 C   0  0  0  0  0  3  0  0  0  0  0  0
    1.8890   39.5990   21.6740 C   0  0  0  0  0  3  0  0  0  0  0  0
    1.1760   38.9190   22.6280 C   0  0  0  0  0  0  0  0  0  0  0  0
 19 20  1  0
 20 15  1  0
 16 15  2  0
  8  7  1  0
  6  7  2  0
  6  5  1  0
 15 17  1  0
  7  9  1  0
  5  4  2  0
  9 10  2  0
  4 10  1  0
  4  3  1  0
 10  1  1  0
 21  3  1  0
 21 22  1  0
  3  2  1  0
 17 18  1  0
 17 14  1  0
 13 11  2  0
  1  2  2  0
  1 14  1  0
  2 11  1  0
 30 29  1  0
 30 31  2  0
 29 28  2  0
 11 12  1  0
 22 31  1  0
 22 23  2  0
 31 26  1  0
 28 27  1  0
 23 24  1  0
 26 27  2  0
 26 25  1  0
 24 25  2  0
M  RAD  8   5   2   6   2   9   2  14   3  19   2  21   3  23   2  24   2
M  CHG  2   3   1  12  -1
M  RAD  5  25   2  27   2  28   2  29   2  30   2
M  END
>  <_TriposChargeType>  (1) 
GASTEIGER

>  <SuCOS_score>  (1) 
0.3254593127274687

>  <Volume_score>  (1) 
0.48094133244945314

>  <Feature_score>  (1) 
0.16997729300548428

$$$$
