DOCK.F40.P2hvx/L1013_ligand.pdbt
     RDKit          3D

 27 30  0  0  0  0  0  0  0  0999 V2000
   -4.8940   37.1610   21.6160 N   0  0  0  0  0  4  0  0  0  0  0  0
   -3.9790   38.1200   21.9350 C   0  0  0  0  0  0  0  0  0  0  0  0
   -2.7710   37.8690   21.3250 C   0  0  0  0  0  0  0  0  0  0  0  0
   -3.0060   36.6790   20.5980 C   0  0  0  0  0  0  0  0  0  0  0  0
   -2.2010   35.9330   19.7650 C   0  0  0  0  0  3  0  0  0  0  0  0
   -2.6820   34.8000   19.1390 C   0  0  0  0  0  3  0  0  0  0  0  0
   -3.9790   34.4070   19.3480 C   0  0  0  0  0  3  0  0  0  0  0  0
   -4.7970   35.1370   20.1730 C   0  0  0  0  0  3  0  0  0  0  0  0
   -4.2880   36.2910   20.8000 C   0  0  0  0  0  0  0  0  0  0  0  0
   -4.3380   39.2480   22.7960 C   0  0  0  0  0  0  0  0  0  0  0  0
   -4.0060   40.4200   22.3910 O   0  0  0  0  0  1  0  0  0  0  0  0
   -5.0000   39.1550   24.0000 O   0  0  0  0  0  0  0  0  0  0  0  0
   -6.2820   37.0290   22.0420 C   0  0  0  0  0  2  0  0  0  0  0  0
   -7.2280   37.5270   20.9790 C   0  0  0  0  0  2  0  0  0  0  0  0
   -7.2010   39.7730   20.3990 C   0  0  0  0  0  1  0  0  0  0  0  0
   -7.7430   38.7760   21.1990 O   0  0  0  0  0  0  0  0  0  0  0  0
   -1.5180   38.6340   21.3010 C   0  0  0  0  0  2  0  0  0  0  0  0
   -0.5250   38.5440   22.3200 C   0  0  0  0  0  0  0  0  0  0  0  0
   -0.8150   37.9390   23.5610 C   0  0  0  0  0  3  0  0  0  0  0  0
    0.0510   37.8670   24.6030 C   0  0  0  0  0  3  0  0  0  0  0  0
    1.3010   38.4030   24.4940 C   0  0  0  0  0  3  0  0  0  0  0  0
    1.6520   39.0090   23.3170 C   0  0  0  0  0  0  0  0  0  0  0  0
    2.9180   39.5670   23.1940 C   0  0  0  0  0  3  0  0  0  0  0  0
    3.3270   40.1990   22.0320 C   0  0  0  0  0  3  0  0  0  0  0  0
    2.4430   40.2600   21.0040 C   0  0  0  0  0  3  0  0  0  0  0  0
    1.1980   39.7060   21.1390 C   0  0  0  0  0  3  0  0  0  0  0  0
    0.7390   39.0680   22.2610 C   0  0  0  0  0  0  0  0  0  0  0  0
  6  7  2  0
  6  5  1  0
  7  8  1  0
  5  4  2  0
  8  9  2  0
 15 16  1  0
  4  9  1  0
  4  3  1  0
  9  1  1  0
 14 16  1  0
 14 13  1  0
 25 26  1  0
 25 24  2  0
 26 27  2  0
 17  3  1  0
 17 18  1  0
  3  2  2  0
  1  2  1  0
  1 13  1  0
  2 10  1  0
 24 23  1  0
 27 18  1  0
 27 22  1  0
 18 19  2  0
 11 10  1  0
 10 12  2  0
 23 22  2  0
 22 21  1  0
 19 20  1  0
 21 20  2  0
M  RAD  8   5   2   6   2   7   2   8   2  13   3  14   3  15   2  17   3
M  CHG  2   1   1  11  -1
M  RAD  7  19   2  20   2  21   2  23   2  24   2  25   2  26   2
M  END
>  <_TriposChargeType>  (1) 
GASTEIGER

>  <SuCOS_score>  (1) 
0.2622909396982758

>  <Volume_score>  (1) 
0.4157551651751188

>  <Feature_score>  (1) 
0.10882671422143284

$$$$
