DOCK.F40.P2hvx/L1012_ligand.pdbt
     RDKit          3D

 30 32  0  0  0  0  0  0  0  0999 V2000
   -2.4970   37.8070   21.7300 N   0  0  0  0  0  0  0  0  0  0  0  0
   -1.8080   37.0280   21.8770 H   0  0  0  0  0  0  0  0  0  0  0  0
   -6.4840   36.8150   20.8820 C   0  0  0  0  0  0  0  0  0  0  0  0
   -6.1880   38.0840   21.3290 C   0  0  0  0  0  3  0  0  0  0  0  0
   -4.8640   38.4050   21.6050 C   0  0  0  0  0  3  0  0  0  0  0  0
   -3.8420   37.5020   21.4480 C   0  0  0  0  0  0  0  0  0  0  0  0
   -4.1600   36.2390   21.0010 C   0  0  0  0  0  0  0  0  0  0  0  0
   -5.4620   35.8780   20.7140 C   0  0  0  0  0  3  0  0  0  0  0  0
   -2.8890   35.0580   20.7880 S   0  0  2  0  0  6  0  0  0  0  0  0
   -2.3770   35.0010   19.0810 C   0  0  0  0  0  1  0  0  0  0  0  0
   -3.3800   33.6610   21.1240 O   0  0  0  0  0  0  0  0  0  0  0  0
   -1.6800   35.4030   21.5990 O   0  0  0  0  0  0  0  0  0  0  0  0
   -7.8620   36.4430   20.5820 C   0  0  0  0  0  0  0  0  0  0  0  0
   -8.8230   37.1370   20.9920 O   0  0  0  0  0  0  0  0  0  0  0  0
   -8.8090   35.4010   18.6000 C   0  0  0  0  0  1  0  0  0  0  0  0
   -8.1230   35.3140   19.8390 O   0  0  0  0  0  0  0  0  0  0  0  0
   -1.9680   39.4170   21.8370 S   0  0  2  0  0  6  0  0  0  0  0  0
   -2.4810   40.0640   23.0930 O   0  0  0  0  0  0  0  0  0  0  0  0
   -2.5610   40.2050   20.6940 O   0  0  0  0  0  0  0  0  0  0  0  0
   -0.2250   39.5940   21.8690 C   0  0  0  0  0  0  0  0  0  0  0  0
    0.7690   40.2000   20.6320 S   0  0  0  0  0  0  0  0  0  0  0  0
    2.2880   40.0580   21.3950 C   0  0  0  0  0  0  0  0  0  0  0  0
    3.5990   40.3600   20.9990 C   0  0  0  0  0  3  0  0  0  0  0  0
    4.6630   40.1300   21.8590 C   0  0  0  0  0  3  0  0  0  0  0  0
    4.3310   39.6040   23.0790 C   0  0  0  0  0  0  0  0  0  0  0  0
    5.3750   39.3720   23.9380 F   0  0  0  0  0  0  0  0  0  0  0  0
    3.0640   39.3010   23.4860 C   0  0  0  0  0  3  0  0  0  0  0  0
    1.9730   39.5330   22.6150 C   0  0  0  0  0  0  0  0  0  0  0  0
    0.6650   39.2900   22.8630 C   0  0  0  0  0  0  0  0  0  0  0  0
    0.1110   38.7070   24.1620 C   0  0  0  0  0  1  0  0  0  0  0  0
 15 16  1  0
  9 10  1  6
 16 13  1  0
 13  3  1  0
 13 14  2  0
 21 22  1  0
 21 20  1  0
 19 17  2  0
  8  3  2  0
  8  7  1  0
  9  7  1  0
  9 11  2  0
  9 12  2  0
  3  4  1  0
 23 22  2  0
 23 24  1  0
  7  6  2  0
  4  5  2  0
 22 28  1  0
  6  5  1  0
  6  1  1  0
 17  1  1  6
  1  2  1  0
 17 20  1  0
 17 18  2  0
 24 25  2  0
 20 29  2  0
 28 29  1  0
 28 27  2  0
 29 30  1  0
 25 27  1  0
 25 26  1  0
M  RAD  8   4   2   5   2   8   2  10   2  15   2  23   2  24   2  27   2
M  RAD  1  30   2
M  END
>  <_TriposChargeType>  (1) 
GASTEIGER

>  <SuCOS_score>  (1) 
0.31970050028919417

>  <Volume_score>  (1) 
0.42152416768056633

>  <Feature_score>  (1) 
0.21787683289782195

$$$$
