DOCK.F40.P2hvx/L1015_ligand.pdbt
     RDKit          3D

 32 35  0  0  0  0  0  0  0  0999 V2000
   -2.6780   37.7190   21.8940 N   0  0  0  0  0  0  0  0  0  0  0  0
   -2.0160   36.9810   22.2190 H   0  0  0  0  0  0  0  0  0  0  0  0
   -3.9440   37.3330   21.4240 C   0  0  0  0  0  0  0  0  0  0  0  0
   -5.0940   38.0960   21.4880 C   0  0  0  0  0  3  0  0  0  0  0  0
   -6.3210   37.6900   20.9990 C   0  0  0  0  0  3  0  0  0  0  0  0
   -6.4340   36.4610   20.4090 C   0  0  0  0  0  0  0  0  0  0  0  0
   -5.3030   35.6750   20.3290 C   0  0  0  0  0  3  0  0  0  0  0  0
   -4.1070   36.0790   20.8100 C   0  0  0  0  0  0  0  0  0  0  0  0
   -7.6990   35.9580   19.8670 C   0  0  0  0  0  0  0  0  0  0  0  0
   -8.8840   36.6590   19.9980 C   0  0  0  0  0  3  0  0  0  0  0  0
  -10.0620   36.1480   19.4700 C   0  0  0  0  0  3  0  0  0  0  0  0
  -10.0440   34.9760   18.8360 N   0  0  0  0  0  0  0  0  0  0  0  0
   -8.9150   34.2580   18.6850 C   0  0  0  0  0  3  0  0  0  0  0  0
   -7.7490   34.7550   19.2020 C   0  0  0  0  0  3  0  0  0  0  0  0
   -2.7070   35.0470   20.6840 S   0  0  1  0  0  6  0  0  0  0  0  0
   -2.1990   35.0000   18.9840 C   0  0  0  0  0  1  0  0  0  0  0  0
   -1.5910   35.6070   21.5180 O   0  0  0  0  0  0  0  0  0  0  0  0
   -2.9900   33.6670   21.2110 O   0  0  0  0  0  0  0  0  0  0  0  0
   -2.2000   39.3480   21.9450 S   0  0  2  0  0  6  0  0  0  0  0  0
   -2.7850   39.9800   23.2000 O   0  0  0  0  0  0  0  0  0  0  0  0
   -2.8010   40.1090   20.7930 O   0  0  0  0  0  0  0  0  0  0  0  0
   -0.0310   38.5990   24.2030 C   0  0  0  0  0  1  0  0  0  0  0  0
    0.4630   39.2250   22.9060 C   0  0  0  0  0  0  0  0  0  0  0  0
   -0.4620   39.5390   21.9540 C   0  0  0  0  0  0  0  0  0  0  0  0
    0.4640   40.1960   20.6970 S   0  0  0  0  0  0  0  0  0  0  0  0
    2.0240   40.0600   21.4050 C   0  0  0  0  0  0  0  0  0  0  0  0
    3.3070   40.3980   20.9660 C   0  0  0  0  0  3  0  0  0  0  0  0
    4.4060   40.1690   21.7670 C   0  0  0  0  0  3  0  0  0  0  0  0
    4.1330   39.6010   22.9920 C   0  0  0  0  0  0  0  0  0  0  0  0
    5.2070   39.3670   23.7990 F   0  0  0  0  0  0  0  0  0  0  0  0
    2.8870   39.2650   23.4370 C   0  0  0  0  0  3  0  0  0  0  0  0
    1.7540   39.4950   22.6210 C   0  0  0  0  0  0  0  0  0  0  0  0
 13 12  2  0
 13 14  1  0
 12 11  1  0
 15 16  1  6
 14  9  2  0
 11 10  2  0
  9 10  1  0
  9  6  1  0
  7  6  2  0
  7  8  1  0
  6  5  1  0
 15  8  1  0
 15 18  2  0
 15 17  2  0
 25 26  1  0
 25 24  1  0
 21 19  2  0
  8  3  2  0
 27 26  1  0
 27 28  2  0
  5  4  2  0
 26 32  2  0
  3  4  1  0
  3  1  1  0
 28 29  1  0
 19  1  1  6
  1  2  1  0
 19 24  1  0
 19 20  2  0
 24 23  2  0
 32 23  1  0
 32 31  1  0
 23 22  1  0
 29 31  2  0
 29 30  1  0
M  RAD  8   4   2   5   2   7   2  10   2  11   2  13   2  14   2  16   2
M  RAD  4  22   2  27   2  28   2  31   2
M  END
>  <_TriposChargeType>  (1) 
GASTEIGER

>  <SuCOS_score>  (1) 
0.3108720857136086

>  <Volume_score>  (1) 
0.41200485490455696

>  <Feature_score>  (1) 
0.20973931652266017

$$$$
