DOCK.F40.P1t31/L1003_ligand.pdbt
     RDKit          3D

 32 35  0  0  0  0  0  0  0  0999 V2000
   -2.6750   37.4670   22.9550 N   0  0  0  0  0  0  0  0  0  0  0  0
   -3.6310   37.4400   22.4830 H   0  0  0  0  0  0  0  0  0  0  0  0
   -2.0140   36.2480   23.0990 C   0  0  0  0  0  0  0  0  0  0  0  0
   -1.3740   35.8700   24.2690 C   0  0  0  0  0  3  0  0  0  0  0  0
   -0.7160   34.6560   24.3850 C   0  0  0  0  0  3  0  0  0  0  0  0
   -0.6760   33.7740   23.3290 C   0  0  0  0  0  0  0  0  0  0  0  0
   -1.3040   34.1320   22.1630 C   0  0  0  0  0  3  0  0  0  0  0  0
   -1.9630   35.3520   22.0520 C   0  0  0  0  0  0  0  0  0  0  0  0
   -0.0010   32.4860   23.3910 C   0  0  0  0  0  0  0  0  0  0  0  0
    1.2100   32.3310   24.0460 C   0  0  0  0  0  3  0  0  0  0  0  0
    1.8750   31.1260   24.1220 C   0  0  0  0  0  3  0  0  0  0  0  0
    1.3150   30.0400   23.5270 N   0  0  0  0  0  0  0  0  0  0  0  0
    0.1450   30.1640   22.8870 C   0  0  0  0  0  3  0  0  0  0  0  0
   -0.5360   31.3590   22.8000 C   0  0  0  0  0  3  0  0  0  0  0  0
   -2.5970   35.6390   20.7550 C   0  0  2  0  0  0  0  0  0  0  0  0
   -3.9550   35.7840   20.8190 F   0  0  0  0  0  0  0  0  0  0  0  0
   -2.2360   34.6260   19.8540 F   0  0  0  0  0  0  0  0  0  0  0  0
   -2.0980   36.8000   20.2000 F   0  0  0  0  0  0  0  0  0  0  0  0
   -2.1370   39.0130   23.4430 S   0  0  1  0  0  6  0  0  0  0  0  0
   -2.9730   40.1010   22.8080 O   0  0  0  0  0  0  0  0  0  0  0  0
   -2.3460   39.2000   24.9430 O   0  0  0  0  0  0  0  0  0  0  0  0
    0.5940   38.6330   25.2790 C   0  0  0  0  0  1  0  0  0  0  0  0
    0.6900   39.1410   23.8480 C   0  0  0  0  0  0  0  0  0  0  0  0
   -0.4420   39.2790   23.1150 C   0  0  0  0  0  0  0  0  0  0  0  0
    0.1450   39.8500   21.6050 S   0  0  0  0  0  0  0  0  0  0  0  0
    1.8090   39.8940   21.9580 C   0  0  0  0  0  0  0  0  0  0  0  0
    2.9260   40.2610   21.2060 C   0  0  0  0  0  3  0  0  0  0  0  0
    4.1910   40.2000   21.7490 C   0  0  0  0  0  3  0  0  0  0  0  0
    4.2510   39.7610   23.0560 C   0  0  0  0  0  0  0  0  0  0  0  0
    5.5030   39.6980   23.6030 F   0  0  0  0  0  0  0  0  0  0  0  0
    3.1640   39.4000   23.8000 C   0  0  0  0  0  3  0  0  0  0  0  0
    1.8680   39.4610   23.2480 C   0  0  0  0  0  0  0  0  0  0  0  0
 15 17  1  6
 18 15  1  0
 15 16  1  0
 15  8  1  0
 27 28  2  0
 27 26  1  0
 25 26  1  0
 25 24  1  0
 28 29  1  0
 26 32  2  0
  8  7  2  0
  8  3  1  0
  7  6  1  0
  2  1  1  0
 14 13  2  0
 14  9  1  0
 20 19  2  0
 13 12  1  0
  1  3  1  0
 19  1  1  6
 29 30  1  0
 29 31  2  0
  3  4  2  0
 24 19  1  0
 24 23  2  0
 32 31  1  0
 32 23  1  0
  6  9  1  0
  6  5  2  0
  9 10  2  0
 19 21  2  0
 12 11  2  0
 23 22  1  0
 10 11  1  0
  4  5  1  0
M  RAD  8   4   2   5   2   7   2  10   2  11   2  13   2  14   2  22   2
M  RAD  3  27   2  28   2  31   2
M  END
>  <_TriposChargeType>  (1) 
GASTEIGER

>  <SuCOS_score>  (1) 
0.2897453776397

>  <Volume_score>  (1) 
0.37103174603174605

>  <Feature_score>  (1) 
0.2084590092476539

$$$$
