DOCK.F40.P1t31/L1013_ligand.pdbt
     RDKit          3D

 27 30  0  0  0  0  0  0  0  0999 V2000
   -5.0840   37.0270   21.2530 N   0  0  0  0  0  4  0  0  0  0  0  0
   -4.2390   38.0160   21.6620 C   0  0  0  0  0  0  0  0  0  0  0  0
   -2.9740   37.8220   21.1560 C   0  0  0  0  0  0  0  0  0  0  0  0
   -3.0980   36.6350   20.3980 C   0  0  0  0  0  0  0  0  0  0  0  0
   -2.1940   35.9330   19.6290 C   0  0  0  0  0  3  0  0  0  0  0  0
   -2.5730   34.7910   18.9510 C   0  0  0  0  0  3  0  0  0  0  0  0
   -3.8670   34.3440   19.0420 C   0  0  0  0  0  3  0  0  0  0  0  0
   -4.7810   35.0300   19.8020 C   0  0  0  0  0  3  0  0  0  0  0  0
   -4.3750   36.1930   20.4830 C   0  0  0  0  0  0  0  0  0  0  0  0
   -4.7160   39.1170   22.5010 C   0  0  0  0  0  0  0  0  0  0  0  0
   -5.2900   38.8020   23.6050 O   0  0  0  0  0  1  0  0  0  0  0  0
   -4.6020   40.4560   22.2020 O   0  0  0  0  0  0  0  0  0  0  0  0
   -6.4970   36.8340   21.5560 C   0  0  0  0  0  2  0  0  0  0  0  0
   -7.3620   37.2030   20.3770 C   0  0  0  0  0  2  0  0  0  0  0  0
   -9.5100   38.0010   20.0100 C   0  0  0  0  0  1  0  0  0  0  0  0
   -8.2740   38.1950   20.6150 O   0  0  0  0  0  0  0  0  0  0  0  0
   -1.7550   38.6360   21.2500 C   0  0  0  0  0  2  0  0  0  0  0  0
   -0.7980   38.4960   22.2960 C   0  0  0  0  0  0  0  0  0  0  0  0
   -1.1380   37.8560   23.5070 C   0  0  0  0  0  3  0  0  0  0  0  0
   -0.3080   37.7360   24.5730 C   0  0  0  0  0  3  0  0  0  0  0  0
    0.9540   38.2520   24.5220 C   0  0  0  0  0  3  0  0  0  0  0  0
    1.3540   38.8880   23.3760 C   0  0  0  0  0  0  0  0  0  0  0  0
    2.6320   39.4270   23.3120 C   0  0  0  0  0  3  0  0  0  0  0  0
    3.0890   40.0880   22.1850 C   0  0  0  0  0  3  0  0  0  0  0  0
    2.2410   40.1980   21.1310 C   0  0  0  0  0  3  0  0  0  0  0  0
    0.9830   39.6620   21.2080 C   0  0  0  0  0  3  0  0  0  0  0  0
    0.4770   38.9970   22.2940 C   0  0  0  0  0  0  0  0  0  0  0  0
  6  7  2  0
  6  5  1  0
  7  8  1  0
  5  4  2  0
  8  9  2  0
 15 16  1  0
 14 16  1  0
 14 13  1  0
  4  9  1  0
  4  3  1  0
  9  1  1  0
 25 26  1  0
 25 24  2  0
  3 17  1  0
  3  2  2  0
 26 27  2  0
 17 18  1  0
  1 13  1  0
  1  2  1  0
  2 10  1  0
 24 23  1  0
 12 10  2  0
 27 18  1  0
 27 22  1  0
 18 19  2  0
 10 11  1  0
 23 22  2  0
 22 21  1  0
 19 20  1  0
 21 20  2  0
M  RAD  8   5   2   6   2   7   2   8   2  13   3  14   3  15   2  17   3
M  CHG  2   1   1  11  -1
M  RAD  7  19   2  20   2  21   2  23   2  24   2  25   2  26   2
M  END
>  <_TriposChargeType>  (1) 
GASTEIGER

>  <SuCOS_score>  (1) 
0.24035918515665308

>  <Volume_score>  (1) 
0.38979118329466356

>  <Feature_score>  (1) 
0.09092718701864261

$$$$
