DOCK.F40.P1t31/L1017_ligand.pdbt
     RDKit          3D

 31 34  0  0  0  0  0  0  0  0999 V2000
   -4.7790   37.8000   21.4560 C   0  0  0  0  0  0  0  0  0  0  0  0
   -3.6270   38.5210   21.6640 C   0  0  0  0  0  0  0  0  0  0  0  0
   -2.5700   37.9430   21.1070 N   0  0  0  0  0  4  0  0  0  0  0  0
   -2.9910   36.8230   20.5180 C   0  0  0  0  0  0  0  0  0  0  0  0
   -2.3780   35.8010   19.7980 C   0  0  0  0  0  3  0  0  0  0  0  0
   -3.0100   34.7120   19.2760 C   0  0  0  0  0  3  0  0  0  0  0  0
   -4.3920   34.5950   19.4770 C   0  0  0  0  0  0  0  0  0  0  0  0
   -5.0470   33.5290   19.0020 F   0  0  0  0  0  0  0  0  0  0  0  0
   -5.0400   35.5920   20.1820 C   0  0  0  0  0  3  0  0  0  0  0  0
   -4.3850   36.6870   20.7010 C   0  0  0  0  0  0  0  0  0  0  0  0
   -3.6660   39.8340   22.3950 C   0  0  0  0  0  0  0  0  0  0  0  0
   -2.9990   39.9430   23.4430 O   0  0  0  0  0  1  0  0  0  0  0  0
   -4.4000   40.9220   22.0000 O   0  0  0  0  0  0  0  0  0  0  0  0
   -6.0550   37.8950   22.1440 C   0  0  0  0  0  2  0  0  0  0  0  0
   -6.1340   37.8700   23.5590 N   0  0  0  0  0  0  0  0  0  0  0  0
   -5.3460   37.9300   24.1670 H   0  0  0  0  0  0  0  0  0  0  0  0
   -8.9520   38.3290   23.7550 C   0  0  0  0  0  1  0  0  0  0  0  0
   -7.3560   39.0620   23.9560 S   0  0  2  0  0  6  0  0  0  0  0  0
   -7.2000   40.2980   23.2000 O   0  0  0  0  0  0  0  0  0  0  0  0
   -7.2000   39.3790   25.4660 O   0  0  0  0  0  0  0  0  0  0  0  0
   -1.2450   38.4980   21.0080 C   0  0  0  0  0  2  0  0  0  0  0  0
   -0.4550   38.3500   22.2330 C   0  0  0  0  0  0  0  0  0  0  0  0
   -0.8760   37.6790   23.3250 C   0  0  0  0  0  3  0  0  0  0  0  0
   -0.1190   37.5910   24.4650 C   0  0  0  0  0  3  0  0  0  0  0  0
    1.1200   38.2010   24.5330 C   0  0  0  0  0  3  0  0  0  0  0  0
    1.5570   38.9040   23.3950 C   0  0  0  0  0  0  0  0  0  0  0  0
    2.7930   39.5110   23.4440 C   0  0  0  0  0  3  0  0  0  0  0  0
    3.2510   40.1970   22.3460 C   0  0  0  0  0  3  0  0  0  0  0  0
    2.5110   40.2910   21.1980 C   0  0  0  0  0  3  0  0  0  0  0  0
    1.3050   39.6770   21.1820 C   0  0  0  0  0  3  0  0  0  0  0  0
    0.7760   38.9620   22.2870 C   0  0  0  0  0  0  0  0  0  0  0  0
  8  7  1  0
  6  7  2  0
  6  5  1  0
  7  9  1  0
  5  4  2  0
  9 10  2  0
  4 10  1  0
  4  3  1  0
 10  1  1  0
 21  3  1  0
 21 22  1  0
  3  2  1  0
 30 29  1  0
 30 31  2  0
 29 28  2  0
  1  2  2  0
  1 14  1  0
  2 11  1  0
 13 11  2  0
 14 15  1  0
 22 31  1  0
 22 23  2  0
 31 26  1  0
 28 27  1  0
 11 12  1  0
 19 18  2  0
 23 24  1  0
 26 27  2  0
 26 25  1  0
 15 18  1  0
 15 16  1  0
 18 17  1  1
 18 20  2  0
 24 25  2  0
M  RAD  8   5   2   6   2   9   2  14   3  17   2  21   3  23   2  24   2
M  CHG  2   3   1  12  -1
M  RAD  5  25   2  27   2  28   2  29   2  30   2
M  END
>  <_TriposChargeType>  (1) 
GASTEIGER

>  <SuCOS_score>  (1) 
0.25540002892775815

>  <Volume_score>  (1) 
0.4198717948717948

>  <Feature_score>  (1) 
0.09092826298372143

$$$$
