DOCK.F36.P4k69/L1001_ligand.pdbt
     RDKit          3D

 32 35  0  0  0  0  0  0  0  0999 V2000
   -4.2680   38.9810   21.4330 C   0  0  0  0  0  0  0  0  0  0  0  0
   -3.1340   39.8030   21.5230 C   0  0  0  0  0  0  0  0  0  0  0  0
   -2.0660   39.1300   21.0870 N   0  0  0  0  0  4  0  0  0  0  0  0
   -2.4860   37.9070   20.7240 C   0  0  0  0  0  0  0  0  0  0  0  0
   -1.7680   36.8150   20.2000 C   0  0  0  0  0  3  0  0  0  0  0  0
   -2.3880   35.6430   19.8890 C   0  0  0  0  0  3  0  0  0  0  0  0
   -3.7430   35.5010   20.0830 C   0  0  0  0  0  0  0  0  0  0  0  0
   -4.3990   34.3560   19.7890 F   0  0  0  0  0  0  0  0  0  0  0  0
   -4.4370   36.5850   20.6000 C   0  0  0  0  0  3  0  0  0  0  0  0
   -3.8320   37.7940   20.9260 C   0  0  0  0  0  0  0  0  0  0  0  0
   -3.1770   41.1670   22.0240 C   0  0  0  0  0  0  0  0  0  0  0  0
   -3.5510   41.4010   23.1810 O   0  0  0  0  0  1  0  0  0  0  0  0
   -2.8000   42.2000   21.2000 O   0  0  0  0  0  0  0  0  0  0  0  0
   -5.6050   39.3900   21.8200 C   0  0  0  0  0  2  0  0  0  0  0  0
   -6.7170   41.5040   22.3310 C   0  0  0  0  0  0  0  0  0  0  0  0
   -6.8480   41.1790   23.5440 O   0  0  0  0  0  0  0  0  0  0  0  0
   -6.1080   40.6430   21.3780 N   0  0  0  0  0  0  0  0  0  0  0  0
   -6.0060   41.1160   20.0020 C   0  0  0  0  0  1  0  0  0  0  0  0
   -7.1830   42.7360   21.9340 O   0  0  0  0  0  0  0  0  0  0  0  0
   -5.5460   44.2190   22.8040 C   0  0  0  0  0  1  0  0  0  0  0  0
   -7.0220   43.9320   22.6650 C   0  0  0  0  0  2  0  0  0  0  0  0
   -0.7060   39.5710   20.9990 C   0  0  0  0  0  2  0  0  0  0  0  0
    0.0760   39.2850   22.2230 C   0  0  0  0  0  0  0  0  0  0  0  0
   -0.4790   38.8580   23.4120 C   0  0  0  0  0  3  0  0  0  0  0  0
    0.2980   38.6000   24.5400 C   0  0  0  0  0  3  0  0  0  0  0  0
    1.6700   38.7900   24.4320 C   0  0  0  0  0  3  0  0  0  0  0  0
    2.2670   39.2180   23.2630 C   0  0  0  0  0  0  0  0  0  0  0  0
    3.6270   39.4000   23.1740 C   0  0  0  0  0  3  0  0  0  0  0  0
    4.1840   39.8250   21.9950 C   0  0  0  0  0  3  0  0  0  0  0  0
    3.4290   40.0820   20.8760 C   0  0  0  0  0  3  0  0  0  0  0  0
    2.0590   39.8890   20.9940 C   0  0  0  0  0  3  0  0  0  0  0  0
    1.4430   39.4630   22.1530 C   0  0  0  0  0  0  0  0  0  0  0  0
  8  7  1  0
  6  7  2  0
  6  5  1  0
 18 17  1  0
  7  9  1  0
  5  4  2  0
  9 10  2  0
  4 10  1  0
  4  3  1  0
 30 31  1  0
 30 29  2  0
 10  1  1  0
 31 32  2  0
 22  3  1  0
 22 23  1  0
  3  2  1  0
 13 11  2  0
 17 14  1  0
 17 15  1  0
  1  2  2  0
  1 14  1  0
  2 11  1  0
 19 15  1  0
 19 21  1  0
 29 28  1  0
 11 12  1  0
 32 23  1  0
 32 27  1  0
 23 24  2  0
 15 16  2  0
 21 20  1  0
 28 27  2  0
 27 26  1  0
 24 25  1  0
 26 25  2  0
M  RAD  8   5   2   6   2   9   2  14   3  18   2  20   2  21   3  22   3
M  CHG  2   3   1  12  -1
M  RAD  7  24   2  25   2  26   2  28   2  29   2  30   2  31   2
M  END
>  <_TriposChargeType>  (1) 
GASTEIGER

>  <SuCOS_score>  (1) 
0.3736078771021067

>  <Volume_score>  (1) 
0.5783891282731191

>  <Feature_score>  (1) 
0.16882662593109432

$$$$
