DOCK.F36.P4k69/L1004_ligand.pdbt
     RDKit          3D

 33 36  0  0  0  0  0  0  0  0999 V2000
   -1.9000   38.5270   22.7070 C   0  0  0  0  0  3  0  0  0  0  0  0
    0.4920   38.5250   23.6660 C   0  0  0  0  0  0  0  0  0  0  0  0
   -0.4840   38.8280   22.7260 C   0  0  0  0  0  0  0  0  0  0  0  0
    0.1430   39.4650   21.6960 N   0  0  0  0  0  0  0  0  0  0  0  0
    1.4580   39.5860   21.9170 C   0  0  0  0  0  0  0  0  0  0  0  0
    2.4910   40.1450   21.1880 C   0  0  0  0  0  3  0  0  0  0  0  0
    3.7870   40.1390   21.6610 C   0  0  0  0  0  3  0  0  0  0  0  0
    4.0340   39.5620   22.8870 C   0  0  0  0  0  0  0  0  0  0  0  0
    5.3010   39.5400   23.3700 F   0  0  0  0  0  0  0  0  0  0  0  0
    2.9790   39.0050   23.6060 C   0  0  0  0  0  3  0  0  0  0  0  0
    1.6780   38.9910   23.1640 C   0  0  0  0  0  0  0  0  0  0  0  0
   -0.3050   39.8410   20.8050 H   0  0  0  0  0  0  0  0  0  0  0  0
    0.5870   36.4390   25.0790 C   0  0  0  0  0  1  0  0  0  0  0  0
    0.2020   37.8890   24.9340 C   0  0  0  0  0  3  0  0  0  0  0  0
    1.0100   38.6010   26.0600 C   0  0  0  0  0  1  0  0  0  0  0  0
   -2.7780   39.7580   22.8490 C   0  0  0  0  0  0  0  0  0  0  0  0
   -2.8030   40.8460   22.1080 C   0  0  0  0  0  0  0  0  0  0  0  0
   -1.9560   41.0260   21.0000 O   0  0  0  0  0  0  0  0  0  0  0  0
   -3.8120   41.8210   22.5830 C   0  0  0  0  0  3  0  0  0  0  0  0
   -4.3880   41.2130   23.7360 N   0  0  0  0  0  0  0  0  0  0  0  0
   -3.7730   39.9510   23.8990 C   0  0  0  0  0  0  0  0  0  0  0  0
   -4.0010   39.0720   24.7990 O   0  0  0  0  0  0  0  0  0  0  0  0
   -2.3570   41.2240   20.0870 H   0  0  0  0  0  0  0  0  0  0  0  0
   -5.1260   41.6370   24.3350 H   0  0  0  0  0  0  0  0  0  0  0  0
   -4.8300   42.1560   21.5200 C   0  0  0  0  0  3  0  0  0  0  0  0
   -5.3100   40.9010   20.8150 C   0  0  0  0  0  1  0  0  0  0  0  0
   -6.0180   42.7970   22.1870 C   0  0  0  0  0  1  0  0  0  0  0  0
   -2.4040   37.6070   21.6880 C   0  0  0  0  0  0  0  0  0  0  0  0
   -1.6000   36.9970   20.7420 C   0  0  0  0  0  3  0  0  0  0  0  0
   -2.1090   36.1150   19.8080 C   0  0  0  0  0  3  0  0  0  0  0  0
   -3.4500   35.8020   19.7780 C   0  0  0  0  0  3  0  0  0  0  0  0
   -4.2580   36.4020   20.7140 C   0  0  0  0  0  3  0  0  0  0  0  0
   -3.7400   37.2750   21.6340 C   0  0  0  0  0  3  0  0  0  0  0  0
 31 30  1  0
 31 32  2  0
 30 29  2  0
 23 18  1  0
 32 33  1  0
 29 28  1  0
 12  4  1  0
 26 25  1  0
 18 17  1  0
  6  7  2  0
  6  5  1  0
 25 27  1  0
 25 19  1  0
 33 28  2  0
  7  8  1  0
 28  1  1  0
  4  5  1  0
  4  3  1  0
  5 11  2  0
 17 19  1  0
 17 16  2  0
 19 20  1  0
  1  3  1  0
  1 16  1  0
  3  2  2  0
 16 21  1  0
  8  9  1  0
  8 10  2  0
 11 10  1  0
 11  2  1  0
  2 14  1  0
 20 21  1  0
 20 24  1  0
 21 22  2  0
 14 13  1  0
 14 15  1  0
M  RAD  8   1   2   6   2   7   2  10   2  13   2  14   2  15   2  19   2
M  RAD  8  25   2  26   2  27   2  29   2  30   2  31   2  32   2  33   2
M  END
>  <_TriposChargeType>  (1) 
GASTEIGER

>  <SuCOS_score>  (1) 
0.3167102062022419

>  <Volume_score>  (1) 
0.5064088397790055

>  <Feature_score>  (1) 
0.12701157262547824

$$$$
