DOCK.F36.P4k69/L1009_ligand.pdbt
     RDKit          3D

 34 38  0  0  0  0  0  0  0  0999 V2000
   -1.9230   38.5130   22.7300 C   0  0  0  0  0  3  0  0  0  0  0  0
    0.6570   37.9630   24.5450 C   0  0  0  0  0  1  0  0  0  0  0  0
    0.5960   38.6640   23.2270 C   0  0  0  0  0  0  0  0  0  0  0  0
   -0.5120   38.9070   22.4440 C   0  0  0  0  0  0  0  0  0  0  0  0
   -0.0420   39.5690   21.3730 N   0  0  0  0  0  0  0  0  0  0  0  0
    1.2770   39.7510   21.4410 C   0  0  0  0  0  0  0  0  0  0  0  0
    2.2200   40.3620   20.6070 C   0  0  0  0  0  3  0  0  0  0  0  0
    3.5420   40.3680   20.9980 C   0  0  0  0  0  3  0  0  0  0  0  0
    3.9810   39.8000   22.1710 C   0  0  0  0  0  0  0  0  0  0  0  0
    5.3060   39.8400   22.5040 F   0  0  0  0  0  0  0  0  0  0  0  0
    3.0520   39.2000   22.9890 C   0  0  0  0  0  3  0  0  0  0  0  0
    1.7150   39.1830   22.6160 C   0  0  0  0  0  0  0  0  0  0  0  0
   -0.6080   39.9230   20.5530 H   0  0  0  0  0  0  0  0  0  0  0  0
   -2.8070   39.6700   22.9830 C   0  0  0  0  0  0  0  0  0  0  0  0
   -2.9270   40.8100   22.3440 C   0  0  0  0  0  0  0  0  0  0  0  0
   -2.2040   41.2280   21.2000 O   0  0  0  0  0  0  0  0  0  0  0  0
   -3.9550   41.6580   22.9820 C   0  0  0  0  0  3  0  0  0  0  0  0
   -4.4640   40.9120   24.0440 O   0  0  0  0  0  0  0  0  0  0  0  0
   -3.7910   39.7100   24.0880 C   0  0  0  0  0  0  0  0  0  0  0  0
   -4.0090   38.8200   24.9480 O   0  0  0  0  0  0  0  0  0  0  0  0
   -1.7010   42.1100   21.3200 H   0  0  0  0  0  0  0  0  0  0  0  0
   -5.1140   41.9460   22.0440 C   0  0  0  0  0  2  0  0  0  0  0  0
   -5.9180   43.0700   22.5880 C   0  0  0  0  0  0  0  0  0  0  0  0
   -5.4080   44.3490   22.6100 C   0  0  0  0  0  3  0  0  0  0  0  0
   -6.1300   45.4220   23.1130 C   0  0  0  0  0  3  0  0  0  0  0  0
   -7.4120   45.2110   23.6150 C   0  0  0  0  0  3  0  0  0  0  0  0
   -7.9080   43.9320   23.5870 C   0  0  0  0  0  3  0  0  0  0  0  0
   -7.1890   42.8690   23.0870 C   0  0  0  0  0  3  0  0  0  0  0  0
   -2.4500   37.5960   21.7040 C   0  0  0  0  0  0  0  0  0  0  0  0
   -3.8090   37.2990   21.6020 C   0  0  0  0  0  3  0  0  0  0  0  0
   -4.2360   36.4300   20.6230 C   0  0  0  0  0  3  0  0  0  0  0  0
   -3.3590   35.8440   19.7360 C   0  0  0  0  0  3  0  0  0  0  0  0
   -2.0000   36.1350   19.8300 C   0  0  0  0  0  3  0  0  0  0  0  0
   -1.5960   36.9950   20.8040 C   0  0  0  0  0  3  0  0  0  0  0  0
 32 33  2  0
 32 31  1  0
 33 34  1  0
 13  5  1  0
  7  8  2  0
  7  6  1  0
 31 30  2  0
 34 29  2  0
  8  9  1  0
 16 21  1  0
 16 15  1  0
  5  6  1  0
  5  4  1  0
  6 12  2  0
 30 29  1  0
 29  1  1  0
 22 23  1  0
 22 17  1  0
  9 10  1  0
  9 11  2  0
 15 17  1  0
 15 14  2  0
  4  1  1  0
  4  3  2  0
 23 24  2  0
 23 28  1  0
 24 25  1  0
 12 11  1  0
 12  3  1  0
  1 14  1  0
 17 18  1  0
 14 19  1  0
 28 27  2  0
 25 26  2  0
  3  2  1  0
 27 26  1  0
 18 19  1  0
 19 20  2  0
M  RAD  8   1   2   2   2   7   2   8   2  11   2  17   2  22   3  24   2
M  RAD  8  25   2  26   2  27   2  28   2  30   2  31   2  32   2  33   2
M  RAD  1  34   2
M  END
>  <_TriposChargeType>  (1) 
GASTEIGER

>  <SuCOS_score>  (1) 
0.3267786956923272

>  <Volume_score>  (1) 
0.49442050602143406

>  <Feature_score>  (1) 
0.15913688536322038

$$$$
