DOCK.F36.P4k69/L1017_ligand.pdbt
     RDKit          3D

 31 34  0  0  0  0  0  0  0  0999 V2000
   -4.2000   39.0930   21.3990 C   0  0  0  0  0  0  0  0  0  0  0  0
   -3.0810   39.8790   21.5370 C   0  0  0  0  0  0  0  0  0  0  0  0
   -1.9740   39.2350   21.1870 N   0  0  0  0  0  4  0  0  0  0  0  0
   -2.3280   38.0060   20.8120 C   0  0  0  0  0  0  0  0  0  0  0  0
   -1.6420   36.8800   20.3630 C   0  0  0  0  0  3  0  0  0  0  0  0
   -2.2130   35.6870   20.0320 C   0  0  0  0  0  3  0  0  0  0  0  0
   -3.6030   35.5670   20.1530 C   0  0  0  0  0  0  0  0  0  0  0  0
   -4.2000   34.4050   19.8610 F   0  0  0  0  0  0  0  0  0  0  0  0
   -4.3220   36.6640   20.5900 C   0  0  0  0  0  3  0  0  0  0  0  0
   -3.7290   37.8640   20.9190 C   0  0  0  0  0  0  0  0  0  0  0  0
   -3.2000   41.3110   21.9780 C   0  0  0  0  0  0  0  0  0  0  0  0
   -2.8000   42.2000   21.2000 O   0  0  0  0  0  1  0  0  0  0  0  0
   -3.7040   41.7130   23.1870 O   0  0  0  0  0  0  0  0  0  0  0  0
   -5.5270   39.2820   21.9600 C   0  0  0  0  0  2  0  0  0  0  0  0
   -6.6860   39.2240   21.1470 N   0  0  0  0  0  0  0  0  0  0  0  0
   -7.5520   38.8180   21.4310 H   0  0  0  0  0  0  0  0  0  0  0  0
   -6.9990   41.9550   21.9420 C   0  0  0  0  0  1  0  0  0  0  0  0
   -6.8970   40.8610   20.5570 S   0  0  2  0  0  6  0  0  0  0  0  0
   -8.0280   40.9880   19.6490 O   0  0  0  0  0  0  0  0  0  0  0  0
   -5.6000   41.2330   19.7930 O   0  0  0  0  0  0  0  0  0  0  0  0
   -0.6550   39.8030   21.0730 C   0  0  0  0  0  2  0  0  0  0  0  0
    0.2250   39.4740   22.1970 C   0  0  0  0  0  0  0  0  0  0  0  0
   -0.2150   39.0410   23.3960 C   0  0  0  0  0  3  0  0  0  0  0  0
    0.6400   38.7740   24.4350 C   0  0  0  0  0  3  0  0  0  0  0  0
    2.0040   38.9450   24.2820 C   0  0  0  0  0  3  0  0  0  0  0  0
    2.4610   39.3990   23.0310 C   0  0  0  0  0  0  0  0  0  0  0  0
    3.8180   39.5670   22.8600 C   0  0  0  0  0  3  0  0  0  0  0  0
    4.2960   40.0000   21.6480 C   0  0  0  0  0  3  0  0  0  0  0  0
    3.4580   40.2680   20.6000 C   0  0  0  0  0  3  0  0  0  0  0  0
    2.1330   40.0850   20.7990 C   0  0  0  0  0  3  0  0  0  0  0  0
    1.5790   39.6480   22.0300 C   0  0  0  0  0  0  0  0  0  0  0  0
 19 18  2  0
 20 18  2  0
  8  7  1  0
  6  7  2  0
  6  5  1  0
  7  9  1  0
  5  4  2  0
 18 15  1  0
 18 17  1  1
  9 10  2  0
 29 30  1  0
 29 28  2  0
 30 31  2  0
  4 10  1  0
  4  3  1  0
 10  1  1  0
 21  3  1  0
 21 22  1  0
 15 16  1  0
 15 14  1  0
  3  2  1  0
 12 11  1  0
  1  2  2  0
  1 14  1  0
  2 11  1  0
 28 27  1  0
 11 13  2  0
 31 22  1  0
 31 26  1  0
 22 23  2  0
 27 26  2  0
 26 25  1  0
 23 24  1  0
 25 24  2  0
M  RAD  8   5   2   6   2   9   2  14   3  17   2  21   3  23   2  24   2
M  CHG  2   3   1  12  -1
M  RAD  5  25   2  27   2  28   2  29   2  30   2
M  END
>  <_TriposChargeType>  (1) 
GASTEIGER

>  <SuCOS_score>  (1) 
0.34395073655725544

>  <Volume_score>  (1) 
0.5406032482598608

>  <Feature_score>  (1) 
0.14729822485465005

$$$$
