DOCK.F36.P4k69/L1011_ligand.pdbt
     RDKit          3D

 30 33  0  0  0  0  0  0  0  0999 V2000
   -4.2370   39.0380   21.5090 C   0  0  0  0  0  0  0  0  0  0  0  0
   -3.1290   39.8780   21.5330 C   0  0  0  0  0  0  0  0  0  0  0  0
   -2.0590   39.1710   21.0520 N   0  0  0  0  0  4  0  0  0  0  0  0
   -2.4490   37.9260   20.7230 C   0  0  0  0  0  0  0  0  0  0  0  0
   -1.8010   36.8220   20.1950 C   0  0  0  0  0  3  0  0  0  0  0  0
   -2.4480   35.6300   19.9370 C   0  0  0  0  0  3  0  0  0  0  0  0
   -3.7980   35.5700   20.2310 C   0  0  0  0  0  0  0  0  0  0  0  0
   -4.4420   34.4030   19.9860 F   0  0  0  0  0  0  0  0  0  0  0  0
   -4.4520   36.6520   20.7540 C   0  0  0  0  0  3  0  0  0  0  0  0
   -3.7880   37.8350   21.0030 C   0  0  0  0  0  0  0  0  0  0  0  0
   -3.2130   41.2630   21.9560 C   0  0  0  0  0  0  0  0  0  0  0  0
   -2.8000   42.2000   21.2000 O   0  0  0  0  0  1  0  0  0  0  0  0
   -3.7320   41.6530   23.1790 O   0  0  0  0  0  0  0  0  0  0  0  0
   -5.6350   39.3430   21.9010 C   0  0  0  0  0  2  0  0  0  0  0  0
   -7.7230   41.1790   19.2240 C   0  0  0  0  0  1  0  0  0  0  0  0
   -6.8780   40.9990   20.4010 N   0  0  0  0  0  0  0  0  0  0  0  0
   -6.5200   42.1760   21.1310 C   0  0  0  0  0  1  0  0  0  0  0  0
   -6.4680   39.6980   20.7430 C   0  0  0  0  0  0  0  0  0  0  0  0
   -6.8370   38.7250   20.0020 O   0  0  0  0  0  0  0  0  0  0  0  0
   -0.7260   39.7270   20.9960 C   0  0  0  0  0  2  0  0  0  0  0  0
    0.0010   39.4080   22.2510 C   0  0  0  0  0  0  0  0  0  0  0  0
   -0.6960   38.8850   23.3360 C   0  0  0  0  0  3  0  0  0  0  0  0
   -0.0290   38.4640   24.4780 C   0  0  0  0  0  3  0  0  0  0  0  0
    1.3360   38.5660   24.5330 C   0  0  0  0  0  3  0  0  0  0  0  0
    2.0770   39.0750   23.4960 C   0  0  0  0  0  0  0  0  0  0  0  0
    3.4650   39.2000   23.6240 C   0  0  0  0  0  3  0  0  0  0  0  0
    4.1560   39.7650   22.5740 C   0  0  0  0  0  3  0  0  0  0  0  0
    3.5450   40.1980   21.4330 C   0  0  0  0  0  3  0  0  0  0  0  0
    2.1470   40.0470   21.3530 C   0  0  0  0  0  3  0  0  0  0  0  0
    1.3950   39.4930   22.3590 C   0  0  0  0  0  0  0  0  0  0  0  0
 15 16  1  0
  6  5  2  0
  6  7  1  0
  8  7  1  0
 19 18  2  0
  5  4  1  0
  7  9  2  0
 16 18  1  0
 16 17  1  0
  4 10  2  0
  4  3  1  0
 18 14  1  0
  9 10  1  0
 20  3  1  0
 20 21  1  0
 10  1  1  0
  3  2  1  0
 12 11  1  0
 29 28  1  0
 29 30  2  0
 28 27  2  0
  1  2  2  0
  1 14  1  0
  2 11  1  0
 11 13  2  0
 21 30  1  0
 21 22  2  0
 30 25  1  0
 27 26  1  0
 22 23  1  0
 25 26  2  0
 25 24  1  0
 23 24  2  0
M  RAD  8   5   2   6   2   9   2  14   3  15   2  17   2  20   3  22   2
M  CHG  2   3   1  12  -1
M  RAD  6  23   2  24   2  26   2  27   2  28   2  29   2
M  END
>  <_TriposChargeType>  (1) 
GASTEIGER

>  <SuCOS_score>  (1) 
0.3607720805172236

>  <Volume_score>  (1) 
0.5317644459175781

>  <Feature_score>  (1) 
0.18977971511686906

$$$$
