DOCK.F40.P3s0n/L1007_ligand.pdbt
     RDKit          3D

 31 35  0  0  0  0  0  0  0  0999 V2000
   -2.4900   38.6340   22.4760 C   0  0  0  0  0  3  0  0  0  0  0  0
   -1.0520   38.8790   22.4880 C   0  0  0  0  0  0  0  0  0  0  0  0
   -0.3540   38.4610   23.6350 C   0  0  0  0  0  3  0  0  0  0  0  0
    0.9960   38.6240   23.7940 C   0  0  0  0  0  3  0  0  0  0  0  0
    1.7150   39.2260   22.7860 C   0  0  0  0  0  0  0  0  0  0  0  0
    3.0890   39.3990   22.9300 C   0  0  0  0  0  3  0  0  0  0  0  0
    3.8000   40.0000   21.9220 C   0  0  0  0  0  3  0  0  0  0  0  0
    3.1200   40.4100   20.7990 C   0  0  0  0  0  3  0  0  0  0  0  0
    1.7690   40.2430   20.6510 C   0  0  0  0  0  3  0  0  0  0  0  0
    1.0290   39.6370   21.6580 C   0  0  0  0  0  0  0  0  0  0  0  0
   -0.3310   39.4710   21.5020 C   0  0  0  0  0  3  0  0  0  0  0  0
   -5.5610   41.5590   21.0000 C   0  0  0  0  0  1  0  0  0  0  0  0
   -4.5500   41.4660   22.1540 C   0  0  2  0  0  0  0  0  0  0  0  0
   -3.2340   41.1300   21.6820 C   0  0  0  0  0  0  0  0  0  0  0  0
   -2.3780   41.7290   21.0030 O   0  0  0  0  0  0  0  0  0  0  0  0
   -3.3460   39.8510   22.3180 C   0  0  0  0  0  0  0  0  0  0  0  0
   -4.5490   40.1560   22.7480 C   0  0  0  0  0  0  0  0  0  0  0  0
   -5.5140   39.4800   23.5130 O   0  0  0  0  0  0  0  0  0  0  0  0
   -5.9390   38.6660   23.0820 H   0  0  0  0  0  0  0  0  0  0  0  0
   -4.6720   42.6210   23.0750 C   0  0  0  0  0  0  0  0  0  0  0  0
   -4.9990   43.8440   22.5370 C   0  0  0  0  0  3  0  0  0  0  0  0
   -5.1340   44.9770   23.3200 C   0  0  0  0  0  3  0  0  0  0  0  0
   -4.9390   44.9050   24.6760 C   0  0  0  0  0  3  0  0  0  0  0  0
   -4.6110   43.6760   25.2110 C   0  0  0  0  0  3  0  0  0  0  0  0
   -4.4780   42.5490   24.4200 C   0  0  0  0  0  3  0  0  0  0  0  0
   -2.8050   37.5530   21.5270 C   0  0  0  0  0  0  0  0  0  0  0  0
   -4.0690   37.0110   21.4550 C   0  0  0  0  0  3  0  0  0  0  0  0
   -4.4010   35.9960   20.5990 C   0  0  0  0  0  3  0  0  0  0  0  0
   -3.4400   35.4850   19.7650 C   0  0  0  0  0  3  0  0  0  0  0  0
   -2.1680   36.0180   19.8250 C   0  0  0  0  0  3  0  0  0  0  0  0
   -1.8280   37.0440   20.6900 C   0  0  0  0  0  3  0  0  0  0  0  0
 29 30  2  0
 29 28  1  0
 30 31  1  0
 28 27  2  0
  9  8  2  0
  9 10  1  0
 31 26  2  0
  8  7  1  0
 13 12  1  6
 15 14  2  0
 27 26  1  0
 11 10  2  0
 11  2  1  0
 26  1  1  0
 10  5  1  0
 14 13  1  0
 14 16  1  0
  7  6  2  0
 13 17  1  0
 13 20  1  0
 16  1  1  0
 16 17  2  0
  1  2  1  0
  2  3  2  0
 21 20  2  0
 21 22  1  0
 17 18  1  0
  5  6  1  0
  5  4  2  0
 20 25  1  0
 19 18  1  0
 22 23  2  0
  3  4  1  0
 25 24  2  0
 23 24  1  0
M  RAD  8   1   2   3   2   4   2   6   2   7   2   8   2   9   2  11   2
M  RAD  8  12   2  21   2  22   2  23   2  24   2  25   2  27   2  28   2
M  RAD  3  29   2  30   2  31   2
M  END
>  <_TriposChargeType>  (1) 
GASTEIGER

>  <SuCOS_score>  (1) 
0.33639651284965333

>  <Volume_score>  (1) 
0.5170699370235333

>  <Feature_score>  (1) 
0.15572308867577334

$$$$
