DOCK.F40.P3s0n/L1014_ligand.pdbt
     RDKit          3D

 24 27  0  0  0  0  0  0  0  0999 V2000
   -0.5970   39.0820   21.0430 C   0  0  0  0  0  2  0  0  0  0  0  0
    1.5580   40.4000   20.5820 C   0  0  0  0  0  1  0  0  0  0  0  0
    2.0960   39.7990   21.7870 C   0  0  0  0  0  0  0  0  0  0  0  0
    3.4290   40.0230   22.1880 C   0  0  0  0  0  3  0  0  0  0  0  0
    3.9520   39.5650   23.3620 C   0  0  0  0  0  3  0  0  0  0  0  0
    3.1500   38.8510   24.2000 C   0  0  0  0  0  3  0  0  0  0  0  0
    1.8300   38.6010   23.8560 C   0  0  0  0  0  0  0  0  0  0  0  0
    1.0380   37.9250   24.7440 C   0  0  0  0  0  3  0  0  0  0  0  0
   -0.2690   37.7150   24.4370 C   0  0  0  0  0  3  0  0  0  0  0  0
   -0.7730   38.1610   23.2740 C   0  0  0  0  0  3  0  0  0  0  0  0
   -0.0110   38.8680   22.2960 C   0  0  0  0  0  0  0  0  0  0  0  0
    1.2950   39.0690   22.6450 C   0  0  0  0  0  0  0  0  0  0  0  0
   -2.0690   38.7640   21.1690 N   0  0  0  0  0  0  0  0  0  0  0  0
   -3.0530   39.5670   21.5930 C   0  0  0  0  0  0  0  0  0  0  0  0
   -4.2420   38.7980   21.6140 C   0  0  0  0  0  3  0  0  0  0  0  0
   -3.9590   37.5290   21.2000 C   0  0  0  0  0  0  0  0  0  0  0  0
   -4.7180   36.3670   21.0460 C   0  0  0  0  0  3  0  0  0  0  0  0
   -4.1460   35.1920   20.6230 C   0  0  0  0  0  3  0  0  0  0  0  0
   -2.8000   35.2010   20.3580 C   0  0  0  0  0  3  0  0  0  0  0  0
   -2.0520   36.3570   20.5120 C   0  0  0  0  0  3  0  0  0  0  0  0
   -2.5970   37.5460   20.9330 C   0  0  0  0  0  0  0  0  0  0  0  0
   -3.0180   40.9540   21.9740 C   0  0  0  0  0  0  0  0  0  0  0  0
   -2.4000   41.7820   21.2010 O   0  0  0  0  0  1  0  0  0  0  0  0
   -3.5670   41.5370   23.0770 O   0  0  0  0  0  0  0  0  0  0  0  0
 19 20  1  0
 19 18  2  0
 20 21  2  0
  2  3  1  0
 18 17  1  0
 21 13  1  0
 21 16  1  0
  1 13  1  0
  1 11  1  0
 17 16  2  0
 13 14  1  0
 16 15  1  0
 23 22  1  0
 14 15  2  0
 14 22  1  0
  3  4  2  0
  3 12  1  0
 22 24  2  0
  4  5  1  0
 11 12  2  0
 11 10  1  0
 12  7  1  0
 10  9  2  0
  5  6  2  0
  7  6  1  0
  7  8  2  0
  9  8  1  0
M  RAD  8   1   3   2   2   4   2   5   2   6   2   8   2   9   2  10   2
M  CHG  1  23  -1
M  RAD  5  15   2  17   2  18   2  19   2  20   2
M  END
>  <_TriposChargeType>  (1) 
GASTEIGER

>  <SuCOS_score>  (1) 
0.3370581777206929

>  <Volume_score>  (1) 
0.40260744669097337

>  <Feature_score>  (1) 
0.27150890875041245

$$$$
