DOCK.F40.P3s0n/L1015_ligand.pdbt
     RDKit          3D

 32 35  0  0  0  0  0  0  0  0999 V2000
   -3.5660   39.2020   23.0430 N   0  0  0  0  0  0  0  0  0  0  0  0
   -3.4230   39.8900   23.8140 H   0  0  0  0  0  0  0  0  0  0  0  0
   -4.6870   39.3460   22.2070 C   0  0  0  0  0  0  0  0  0  0  0  0
   -5.4280   38.3120   21.6680 C   0  0  0  0  0  3  0  0  0  0  0  0
   -6.5350   38.4910   20.8620 C   0  0  0  0  0  3  0  0  0  0  0  0
   -6.9480   39.7610   20.5640 C   0  0  0  0  0  0  0  0  0  0  0  0
   -6.2300   40.8160   21.0870 C   0  0  0  0  0  3  0  0  0  0  0  0
   -5.1460   40.6310   21.8740 C   0  0  0  0  0  0  0  0  0  0  0  0
   -8.1120   40.0350   19.7170 C   0  0  0  0  0  0  0  0  0  0  0  0
   -9.1610   39.1410   19.6000 C   0  0  0  0  0  3  0  0  0  0  0  0
  -10.2470   39.4370   18.7870 C   0  0  0  0  0  3  0  0  0  0  0  0
  -10.2720   40.5890   18.1180 N   0  0  0  0  0  0  0  0  0  0  0  0
   -9.2740   41.4890   18.2000 C   0  0  0  0  0  3  0  0  0  0  0  0
   -8.2000   41.2050   19.0000 C   0  0  0  0  0  3  0  0  0  0  0  0
   -4.2720   41.9990   22.5110 S   0  0  1  0  0  6  0  0  0  0  0  0
   -4.6000   42.1100   24.2520 C   0  0  0  0  0  1  0  0  0  0  0  0
   -2.8000   41.8000   22.2970 O   0  0  0  0  0  0  0  0  0  0  0  0
   -4.6440   43.2710   21.8000 O   0  0  0  0  0  0  0  0  0  0  0  0
   -2.4460   37.9440   22.8300 S   0  0  2  0  0  6  0  0  0  0  0  0
   -2.8890   37.1050   21.6390 O   0  0  0  0  0  0  0  0  0  0  0  0
   -2.4720   37.0100   24.0110 O   0  0  0  0  0  0  0  0  0  0  0  0
    0.1990   37.6720   24.6450 C   0  0  0  0  0  1  0  0  0  0  0  0
    0.3040   38.4160   23.3200 C   0  0  0  0  0  0  0  0  0  0  0  0
   -0.8210   38.5270   22.5570 C   0  0  0  0  0  0  0  0  0  0  0  0
   -0.3010   39.3990   21.2020 S   0  0  0  0  0  0  0  0  0  0  0  0
    1.3500   39.6120   21.6280 C   0  0  0  0  0  0  0  0  0  0  0  0
    2.4280   40.2410   20.9990 C   0  0  0  0  0  3  0  0  0  0  0  0
    3.6740   40.2560   21.5890 C   0  0  0  0  0  3  0  0  0  0  0  0
    3.7550   39.6190   22.8080 C   0  0  0  0  0  0  0  0  0  0  0  0
    4.9790   39.6230   23.4090 F   0  0  0  0  0  0  0  0  0  0  0  0
    2.7140   39.0000   23.4370 C   0  0  0  0  0  3  0  0  0  0  0  0
    1.4320   38.9790   22.8380 C   0  0  0  0  0  0  0  0  0  0  0  0
 12 13  2  0
 12 11  1  0
 13 14  1  0
 11 10  2  0
 14  9  2  0
 10  9  1  0
  9  6  1  0
  6  5  1  0
  6  7  2  0
  5  4  2  0
 27 28  2  0
 27 26  1  0
  7  8  1  0
 25 26  1  0
 25 24  1  0
 28 29  1  0
 26 32  2  0
 20 19  2  0
  4  3  1  0
 18 15  2  0
  8  3  2  0
  8 15  1  0
  3  1  1  0
 17 15  2  0
 15 16  1  1
 24 19  1  0
 24 23  2  0
 29 30  1  0
 29 31  2  0
 19  1  1  1
 19 21  2  0
 32 23  1  0
 32 31  1  0
  1  2  1  0
 23 22  1  0
M  RAD  8   4   2   5   2   7   2  10   2  11   2  13   2  14   2  16   2
M  RAD  4  22   2  27   2  28   2  31   2
M  END
>  <_TriposChargeType>  (1) 
GASTEIGER

>  <SuCOS_score>  (1) 
0.32227361983625996

>  <Volume_score>  (1) 
0.46823372879476666

>  <Feature_score>  (1) 
0.17631351087775324

$$$$
