DOCK.F40.P4kp0/L1006_ligand.pdbt
     RDKit          3D

 42 46  0  0  0  0  0  0  0  0999 V2000
   -2.9350   38.2640   22.1840 C   0  0  0  0  0  3  0  0  0  0  0  0
   -0.6090   38.2040   23.3610 C   0  0  0  0  0  0  0  0  0  0  0  0
   -1.5410   38.5910   22.3880 C   0  0  0  0  0  0  0  0  0  0  0  0
   -0.8130   39.2900   21.4670 N   0  0  0  0  0  0  0  0  0  0  0  0
    0.4660   39.3520   21.7890 C   0  0  0  0  0  0  0  0  0  0  0  0
    1.5340   39.9520   21.1110 C   0  0  0  0  0  3  0  0  0  0  0  0
    2.8000   39.8770   21.6210 C   0  0  0  0  0  0  0  0  0  0  0  0
    3.9600   40.5120   20.9120 C   0  0  0  0  0  1  0  0  0  0  0  0
    2.9610   39.1990   22.8020 C   0  0  0  0  0  3  0  0  0  0  0  0
    1.9100   38.6100   23.4700 C   0  0  0  0  0  3  0  0  0  0  0  0
    0.6260   38.6750   22.9740 C   0  0  0  0  0  0  0  0  0  0  0  0
   -1.2050   39.7420   20.5870 H   0  0  0  0  0  0  0  0  0  0  0  0
   -0.9500   37.5350   24.5900 C   0  0  0  0  0  2  0  0  0  0  0  0
   -1.1430   36.0430   24.6010 C   0  0  1  0  0  0  0  0  0  0  0  0
   -0.3980   35.4030   23.4070 C   0  0  0  0  0  1  0  0  0  0  0  0
   -0.6950   35.3470   25.8350 C   0  0  0  0  0  1  0  0  0  0  0  0
   -4.9920   36.3230   24.7990 C   0  0  0  0  0  1  0  0  0  0  0  0
   -3.5230   36.5850   24.9580 C   0  0  0  0  0  0  0  0  0  0  0  0
   -3.1380   37.5930   25.6010 O   0  0  0  0  0  0  0  0  0  0  0  0
   -2.5660   35.6810   24.3750 N   0  0  0  0  0  0  0  0  0  0  0  0
   -2.8630   34.8540   23.8450 H   0  0  0  0  0  0  0  0  0  0  0  0
   -3.7220   39.5210   21.8950 C   0  0  0  0  0  0  0  0  0  0  0  0
   -3.4710   40.7310   21.5080 C   0  0  0  0  0  0  0  0  0  0  0  0
   -2.2820   41.4030   21.1810 O   0  0  0  0  0  0  0  0  0  0  0  0
   -4.8690   41.1740   21.5270 C   0  0  1  0  0  0  0  0  0  0  0  0
   -5.4920   41.5010   20.2050 C   0  0  0  0  0  1  0  0  0  0  0  0
   -5.1410   39.8060   21.9660 C   0  0  0  0  0  0  0  0  0  0  0  0
   -6.1700   39.1460   22.2740 O   0  0  0  0  0  0  0  0  0  0  0  0
   -2.1120   41.5420   20.1870 H   0  0  0  0  0  0  0  0  0  0  0  0
   -5.0370   42.2310   22.5740 C   0  0  0  0  0  0  0  0  0  0  0  0
   -4.8190   41.9760   23.9170 C   0  0  0  0  0  3  0  0  0  0  0  0
   -4.9790   42.9710   24.8710 C   0  0  0  0  0  3  0  0  0  0  0  0
   -5.3600   44.2430   24.5020 C   0  0  0  0  0  0  0  0  0  0  0  0
   -5.5360   45.3280   25.5320 C   0  0  0  0  0  1  0  0  0  0  0  0
   -5.5810   44.5240   23.1900 C   0  0  0  0  0  3  0  0  0  0  0  0
   -5.4170   43.5190   22.2580 C   0  0  0  0  0  3  0  0  0  0  0  0
   -3.3560   37.1900   21.3090 C   0  0  0  0  0  0  0  0  0  0  0  0
   -2.4560   36.6160   20.4600 C   0  0  0  0  0  3  0  0  0  0  0  0
   -2.8120   35.6000   19.5980 C   0  0  0  0  0  3  0  0  0  0  0  0
   -4.1090   35.1140   19.5550 C   0  0  0  0  0  3  0  0  0  0  0  0
   -5.0300   35.6770   20.3990 C   0  0  0  0  0  3  0  0  0  0  0  0
   -4.6630   36.6890   21.2550 C   0  0  0  0  0  3  0  0  0  0  0  0
 40 39  1  0
 40 41  2  0
 39 38  2  0
 29 24  1  0
 25 26  1  6
 41 42  1  0
 38 37  1  0
 12  4  1  0
  8  7  1  0
  6  7  2  0
  6  5  1  0
 24 23  1  0
 42 37  2  0
 37  1  1  0
  4  5  1  0
  4  3  1  0
 23 25  1  0
 23 22  2  0
 25 27  1  0
 25 30  1  0
  7  9  1  0
  5 11  2  0
 22 27  1  0
 22  1  1  0
 27 28  2  0
  1  3  1  0
 36 30  1  0
 36 35  2  0
  3  2  2  0
 30 31  2  0
  9 10  2  0
 11  2  1  0
 11 10  1  0
 35 33  1  0
  2 13  1  0
 14 15  1  6
 21 20  1  0
 31 32  1  0
 20 14  1  0
 20 18  1  0
 33 32  2  0
 33 34  1  0
 13 14  1  0
 14 16  1  0
 17 18  1  0
 18 19  2  0
M  RAD  8   1   2   6   2   8   2   9   2  10   2  13   3  15   2  16   2
M  RAD  8  17   2  26   2  31   2  32   2  34   2  35   2  36   2  38   2
M  RAD  4  39   2  40   2  41   2  42   2
M  END
>  <_TriposChargeType>  (1) 
GASTEIGER

>  <SuCOS_score>  (1) 
0.3851504548915259

>  <Volume_score>  (1) 
0.5637450199203187

>  <Feature_score>  (1) 
0.20655588986273316

$$$$
