DOCK.F40.P4kp0/L1012_ligand.pdbt
     RDKit          3D

 30 32  0  0  0  0  0  0  0  0999 V2000
   -3.3840   39.1870   22.8130 N   0  0  0  0  0  0  0  0  0  0  0  0
   -3.6110   39.2750   21.7910 H   0  0  0  0  0  0  0  0  0  0  0  0
   -5.5870   41.4730   25.5560 C   0  0  0  0  0  0  0  0  0  0  0  0
   -5.1300   40.2280   25.9330 C   0  0  0  0  0  3  0  0  0  0  0  0
   -4.3990   39.4790   25.0170 C   0  0  0  0  0  3  0  0  0  0  0  0
   -4.1170   39.9350   23.7550 C   0  0  0  0  0  0  0  0  0  0  0  0
   -4.5830   41.1810   23.3990 C   0  0  0  0  0  0  0  0  0  0  0  0
   -5.3120   41.9590   24.2760 C   0  0  0  0  0  3  0  0  0  0  0  0
   -4.2460   41.8000   21.8000 S   0  0  2  0  0  6  0  0  0  0  0  0
   -5.1890   40.9050   20.5790 C   0  0  0  0  0  1  0  0  0  0  0  0
   -2.7870   41.5980   21.4320 O   0  0  0  0  0  0  0  0  0  0  0  0
   -4.6270   43.2420   21.6790 O   0  0  0  0  0  0  0  0  0  0  0  0
   -6.3570   42.2870   26.4900 C   0  0  0  0  0  0  0  0  0  0  0  0
   -5.8000   43.1580   27.2000 O   0  0  0  0  0  0  0  0  0  0  0  0
   -8.6130   42.7390   25.7020 C   0  0  0  0  0  1  0  0  0  0  0  0
   -7.7170   42.1040   26.6010 O   0  0  0  0  0  0  0  0  0  0  0  0
   -2.1380   38.1430   23.3020 S   0  0  2  0  0  6  0  0  0  0  0  0
   -2.3240   36.7750   22.7070 O   0  0  0  0  0  0  0  0  0  0  0  0
   -2.2150   37.9560   24.7990 O   0  0  0  0  0  0  0  0  0  0  0  0
   -0.5370   38.6730   22.8290 C   0  0  0  0  0  0  0  0  0  0  0  0
   -0.1030   39.4870   21.4020 S   0  0  0  0  0  0  0  0  0  0  0  0
    1.5740   39.6490   21.6670 C   0  0  0  0  0  0  0  0  0  0  0  0
    2.6170   40.2190   20.9250 C   0  0  0  0  0  3  0  0  0  0  0  0
    3.9170   40.2000   21.4110 C   0  0  0  0  0  3  0  0  0  0  0  0
    4.0810   39.6000   22.6310 C   0  0  0  0  0  0  0  0  0  0  0  0
    5.3610   39.5750   23.1210 F   0  0  0  0  0  0  0  0  0  0  0  0
    3.0820   39.0390   23.3700 C   0  0  0  0  0  3  0  0  0  0  0  0
    1.7530   39.0540   22.8830 C   0  0  0  0  0  0  0  0  0  0  0  0
    0.6550   38.5440   23.4890 C   0  0  0  0  0  0  0  0  0  0  0  0
    0.6470   37.8430   24.8450 C   0  0  0  0  0  1  0  0  0  0  0  0
  9 10  1  6
 23 24  1  0
 23 22  2  0
 21 22  1  0
 21 20  1  0
 24 25  2  0
 11  9  2  0
 22 28  1  0
 12  9  2  0
  2  1  1  0
  9  7  1  0
 25 26  1  0
 25 27  1  0
 18 17  2  0
 17  1  1  6
  1  6  1  0
 20 17  1  0
 20 29  2  0
 28 27  2  0
 28 29  1  0
 17 19  2  0
  7  6  2  0
  7  8  1  0
 29 30  1  0
  6  5  1  0
  8  3  2  0
  5  4  2  0
  3  4  1  0
  3 13  1  0
 15 16  1  0
 13 16  1  0
 13 14  2  0
M  RAD  8   4   2   5   2   8   2  10   2  15   2  23   2  24   2  27   2
M  RAD  1  30   2
M  END
>  <_TriposChargeType>  (1) 
GASTEIGER

>  <SuCOS_score>  (1) 
0.30443284707652923

>  <Volume_score>  (1) 
0.4242625124295658

>  <Feature_score>  (1) 
0.1846031817234927

$$$$
