DOCK.F40.P5yjp/L1002_ligand.pdbt
     RDKit          3D

 40 44  0  0  0  0  0  0  0  0999 V2000
   -2.5710   37.6310   23.0220 C   0  0  0  0  0  3  0  0  0  0  0  0
    3.2040   39.2930   22.7120 C   0  0  0  0  0  0  0  0  0  0  0  0
    3.2910   38.8000   23.9990 C   0  0  0  0  0  3  0  0  0  0  0  0
    2.1740   38.2710   24.5820 C   0  0  0  0  0  3  0  0  0  0  0  0
    0.9770   38.2380   23.8700 C   0  0  0  0  0  0  0  0  0  0  0  0
   -0.2830   37.7800   24.1760 C   0  0  0  0  0  0  0  0  0  0  0  0
   -1.1290   37.9840   23.1050 C   0  0  0  0  0  0  0  0  0  0  0  0
   -0.3960   38.5680   22.1330 N   0  0  0  0  0  0  0  0  0  0  0  0
    0.8780   38.7300   22.5740 C   0  0  0  0  0  0  0  0  0  0  0  0
    2.0200   39.2650   21.9960 C   0  0  0  0  0  3  0  0  0  0  0  0
   -0.6830   38.8740   21.1770 H   0  0  0  0  0  0  0  0  0  0  0  0
    4.3900   39.8010   20.6090 C   0  0  0  0  0  1  0  0  0  0  0  0
    4.4510   39.8580   22.1230 C   0  0  0  0  0  2  0  0  0  0  0  0
   -0.6580   37.1690   25.4620 C   0  0  0  0  0  2  0  0  0  0  0  0
   -0.1840   35.7710   25.6290 C   0  0  0  0  0  2  0  0  0  0  0  0
   -1.0520   34.8690   24.9170 N   0  0  0  0  0  0  0  0  0  0  0  0
   -0.8320   34.3870   23.6210 C   0  0  0  0  0  0  0  0  0  0  0  0
   -1.7950   33.4370   22.9460 C   0  0  0  0  0  1  0  0  0  0  0  0
    0.2000   34.7540   23.0000 O   0  0  0  0  0  0  0  0  0  0  0  0
   -1.9280   34.5480   25.4210 H   0  0  0  0  0  0  0  0  0  0  0  0
   -3.4260   38.8670   23.0220 C   0  0  0  0  0  0  0  0  0  0  0  0
   -3.6230   39.7390   22.0810 C   0  0  0  0  0  0  0  0  0  0  0  0
   -3.0520   39.7130   20.8000 O   0  0  0  0  0  0  0  0  0  0  0  0
   -4.5500   40.8170   22.5030 C   0  0  0  0  0  3  0  0  0  0  0  0
   -5.1000   40.3750   23.8180 C   0  0  0  0  0  2  0  0  0  0  0  0
   -4.2030   39.2570   24.1910 C   0  0  0  0  0  0  0  0  0  0  0  0
   -4.1480   38.7480   25.3540 O   0  0  0  0  0  0  0  0  0  0  0  0
   -3.6850   39.8360   20.0180 H   0  0  0  0  0  0  0  0  0  0  0  0
   -5.6290   41.0380   21.5110 C   0  0  0  0  0  0  0  0  0  0  0  0
   -6.0720   39.9870   20.7440 C   0  0  0  0  0  3  0  0  0  0  0  0
   -7.0780   40.1510   19.8010 C   0  0  0  0  0  3  0  0  0  0  0  0
   -7.6460   41.4020   19.6310 C   0  0  0  0  0  3  0  0  0  0  0  0
   -7.2000   42.4580   20.4020 C   0  0  0  0  0  3  0  0  0  0  0  0
   -6.2000   42.2730   21.3330 C   0  0  0  0  0  3  0  0  0  0  0  0
   -2.8170   36.8090   21.8180 C   0  0  0  0  0  0  0  0  0  0  0  0
   -4.0660   36.2720   21.6400 C   0  0  0  0  0  3  0  0  0  0  0  0
   -4.3550   35.4990   20.5430 C   0  0  0  0  0  3  0  0  0  0  0  0
   -3.3830   35.2490   19.6000 C   0  0  0  0  0  3  0  0  0  0  0  0
   -2.1360   35.7980   19.8000 C   0  0  0  0  0  3  0  0  0  0  0  0
   -1.8420   36.5770   20.9000 C   0  0  0  0  0  3  0  0  0  0  0  0
 38 39  2  0
 38 37  1  0
 32 31  1  0
 32 33  2  0
 39 40  1  0
 31 30  2  0
 28 23  1  0
 33 34  1  0
 37 36  2  0
 12 13  1  0
 30 29  1  0
 23 22  1  0
 40 35  2  0
 11  8  1  0
 34 29  2  0
 29 24  1  0
 36 35  1  0
 35  1  1  0
 10  9  1  0
 10  2  2  0
 22 24  1  0
 22 21  2  0
 13  2  1  0
  8  9  1  0
  8  7  1  0
 24 25  1  0
  9  5  2  0
  2  3  1  0
 18 17  1  0
 19 17  2  0
 21  1  1  0
 21 26  1  0
  1  7  1  0
  7  6  2  0
 17 16  1  0
 25 26  1  0
  5  6  1  0
  5  4  1  0
  3  4  2  0
  6 14  1  0
 26 27  2  0
 16 20  1  0
 16 15  1  0
 14 15  1  0
M  RAD  8   1   2   3   2   4   2  10   2  12   2  13   3  14   3  15   3
M  RAD  8  18   2  24   2  25   3  30   2  31   2  32   2  33   2  34   2
M  RAD  5  36   2  37   2  38   2  39   2  40   2
M  END
>  <_TriposChargeType>  (1) 
GASTEIGER

>  <SuCOS_score>  (1) 
0.31393722040961225

>  <Volume_score>  (1) 
0.5179521276595744

>  <Feature_score>  (1) 
0.10992231315965002

$$$$
