DOCK.F40.P5yjp/L1008_ligand.pdbt
     RDKit          3D

 32 36  0  0  0  0  0  0  0  0999 V2000
   -2.4490   38.8620   22.7620 C   0  0  0  0  0  3  0  0  0  0  0  0
    4.9390   39.3990   24.0590 C   0  0  0  0  0  1  0  0  0  0  0  0
    3.6950   39.5100   23.2380 C   0  0  0  0  0  0  0  0  0  0  0  0
    3.8000   39.9560   21.9390 C   0  0  0  0  0  3  0  0  0  0  0  0
    2.6310   40.0470   21.2050 C   0  0  0  0  0  3  0  0  0  0  0  0
    1.4080   39.6990   21.7720 C   0  0  0  0  0  0  0  0  0  0  0  0
   -0.1970   39.6810   21.1950 S   0  0  0  0  0  0  0  0  0  0  0  0
   -0.9940   39.1140   22.5870 C   0  0  0  0  0  0  0  0  0  0  0  0
    0.0360   38.9510   23.4800 C   0  0  0  0  0  0  0  0  0  0  0  0
   -0.2950   38.4410   24.8830 C   0  0  0  0  0  1  0  0  0  0  0  0
    1.2760   39.2530   23.0590 C   0  0  0  0  0  0  0  0  0  0  0  0
    2.4850   39.1730   23.7720 C   0  0  0  0  0  3  0  0  0  0  0  0
   -3.2880   40.0470   22.4370 C   0  0  0  0  0  0  0  0  0  0  0  0
   -3.1400   41.2530   21.9920 C   0  0  0  0  0  0  0  0  0  0  0  0
   -2.0150   42.0000   21.6000 O   0  0  0  0  0  0  0  0  0  0  0  0
   -4.5490   41.5700   22.0380 C   0  0  1  0  0  0  0  0  0  0  0  0
   -5.2480   41.7190   20.7000 C   0  0  0  0  0  1  0  0  0  0  0  0
   -4.7120   40.2210   22.5380 C   0  0  0  0  0  0  0  0  0  0  0  0
   -5.7170   39.5120   22.9060 O   0  0  0  0  0  0  0  0  0  0  0  0
   -1.8220   42.0330   20.6080 H   0  0  0  0  0  0  0  0  0  0  0  0
   -4.9620   42.5760   23.0440 C   0  0  0  0  0  0  0  0  0  0  0  0
   -5.0730   42.2840   24.3820 C   0  0  0  0  0  3  0  0  0  0  0  0
   -5.4620   43.2300   25.3170 C   0  0  0  0  0  3  0  0  0  0  0  0
   -5.7470   44.5000   24.9050 C   0  0  0  0  0  3  0  0  0  0  0  0
   -5.6400   44.8080   23.5660 C   0  0  0  0  0  3  0  0  0  0  0  0
   -5.2500   43.8560   22.6320 C   0  0  0  0  0  3  0  0  0  0  0  0
   -2.8270   37.7780   21.8150 C   0  0  0  0  0  0  0  0  0  0  0  0
   -4.0640   37.1710   21.8560 C   0  0  0  0  0  3  0  0  0  0  0  0
   -4.3530   36.1860   20.9680 C   0  0  0  0  0  3  0  0  0  0  0  0
   -3.4520   35.7810   20.0380 C   0  0  0  0  0  3  0  0  0  0  0  0
   -2.2000   36.4000   20.0020 C   0  0  0  0  0  3  0  0  0  0  0  0
   -1.8730   37.4010   20.8860 C   0  0  0  0  0  3  0  0  0  0  0  0
 31 30  2  0
 31 32  1  0
 30 29  1  0
 20 15  1  0
 16 17  1  6
 32 27  2  0
 29 28  2  0
  7  6  1  0
  7  8  1  0
  5  6  2  0
  5  4  1  0
 15 14  1  0
  6 11  1  0
 27 28  1  0
 27  1  1  0
  4  3  2  0
 14 16  1  0
 14 13  2  0
 16 18  1  0
 16 21  1  0
 13 18  1  0
 13  1  1  0
 18 19  2  0
  8  1  1  0
  8  9  2  0
 26 21  1  0
 26 25  2  0
 21 22  2  0
 11  9  1  0
 11 12  2  0
  3 12  1  0
  3  2  1  0
  9 10  1  0
 25 24  1  0
 22 23  1  0
 24 23  2  0
M  RAD  8   1   2   2   2   4   2   5   2  10   2  12   2  17   2  22   2
M  RAD  8  23   2  24   2  25   2  26   2  28   2  29   2  30   2  31   2
M  RAD  1  32   2
M  END
>  <_TriposChargeType>  (1) 
GASTEIGER

>  <SuCOS_score>  (1) 
0.4544119641021822

>  <Volume_score>  (1) 
0.5811512540050823

>  <Feature_score>  (1) 
0.3276726741992822

$$$$
