DOCK.F40.P5yjp/L1003_ligand.pdbt
     RDKit          3D

 32 35  0  0  0  0  0  0  0  0999 V2000
   -1.8660   37.0300   22.9660 N   0  0  0  0  0  0  0  0  0  0  0  0
   -2.7030   37.2120   22.3300 H   0  0  0  0  0  0  0  0  0  0  0  0
   -1.3880   35.7210   23.0110 C   0  0  0  0  0  0  0  0  0  0  0  0
   -0.7520   35.1880   24.1210 C   0  0  0  0  0  3  0  0  0  0  0  0
   -0.2770   33.8870   24.1390 C   0  0  0  0  0  3  0  0  0  0  0  0
   -0.4230   33.0700   23.0410 C   0  0  0  0  0  0  0  0  0  0  0  0
   -1.0500   33.5810   21.9330 C   0  0  0  0  0  3  0  0  0  0  0  0
   -1.5250   34.8890   21.9210 C   0  0  0  0  0  0  0  0  0  0  0  0
    0.0550   31.6950   23.0000 C   0  0  0  0  0  0  0  0  0  0  0  0
    1.3990   31.3980   22.8430 C   0  0  0  0  0  3  0  0  0  0  0  0
    1.8830   30.1080   22.7990 C   0  0  0  0  0  3  0  0  0  0  0  0
    1.0010   29.0820   22.9160 N   0  0  0  0  0  0  0  0  0  0  0  0
   -0.3040   29.3430   23.0680 C   0  0  0  0  0  3  0  0  0  0  0  0
   -0.8090   30.6250   23.1140 C   0  0  0  0  0  3  0  0  0  0  0  0
   -2.1740   35.3390   20.6790 C   0  0  2  0  0  0  0  0  0  0  0  0
   -3.5130   35.5830   20.8080 F   0  0  0  0  0  0  0  0  0  0  0  0
   -1.9270   34.3840   19.6800 F   0  0  0  0  0  0  0  0  0  0  0  0
   -1.6010   36.5020   20.2060 F   0  0  0  0  0  0  0  0  0  0  0  0
   -1.2710   38.3920   23.8090 S   0  0  1  0  0  6  0  0  0  0  0  0
   -2.1440   39.6010   23.5650 O   0  0  0  0  0  0  0  0  0  0  0  0
   -1.3510   38.1620   25.3150 O   0  0  0  0  0  0  0  0  0  0  0  0
    0.1990   39.5760   21.0870 C   0  0  0  0  0  1  0  0  0  0  0  0
    1.0210   39.2310   22.3200 C   0  0  0  0  0  0  0  0  0  0  0  0
    0.3940   38.7560   23.4240 C   0  0  0  0  0  0  0  0  0  0  0  0
    1.6870   38.5260   24.5320 S   0  0  0  0  0  0  0  0  0  0  0  0
    2.9790   39.0420   23.5530 C   0  0  0  0  0  0  0  0  0  0  0  0
    4.3530   39.1380   23.7750 C   0  0  0  0  0  3  0  0  0  0  0  0
    5.1960   39.6000   22.7860 C   0  0  0  0  0  3  0  0  0  0  0  0
    4.5800   39.9440   21.6010 C   0  0  0  0  0  0  0  0  0  0  0  0
    5.4080   40.4030   20.6140 F   0  0  0  0  0  0  0  0  0  0  0  0
    3.2360   39.8530   21.3740 C   0  0  0  0  0  3  0  0  0  0  0  0
    2.3710   39.3820   22.3820 C   0  0  0  0  0  0  0  0  0  0  0  0
 15 17  1  6
 18 15  1  0
 30 29  1  0
 15 16  1  0
 15  8  1  0
 22 23  1  0
 31 29  1  0
 31 32  2  0
 29 28  2  0
  8  7  2  0
  8  3  1  0
  7  6  1  0
 23 32  1  0
 23 24  2  0
  2  1  1  0
 32 26  1  0
 28 27  1  0
 11 10  2  0
 11 12  1  0
 10  9  1  0
 12 13  2  0
  1  3  1  0
 19  1  1  6
  9  6  1  0
  9 14  2  0
  3  4  2  0
  6  5  2  0
 13 14  1  0
 24 19  1  0
 24 25  1  0
 26 27  2  0
 26 25  1  0
 20 19  2  0
 19 21  2  0
  4  5  1  0
M  RAD  8   4   2   5   2   7   2  10   2  11   2  13   2  14   2  22   2
M  RAD  3  27   2  28   2  31   2
M  END
>  <_TriposChargeType>  (1) 
GASTEIGER

>  <SuCOS_score>  (1) 
0.2586783014937067

>  <Volume_score>  (1) 
0.3410749834107498

>  <Feature_score>  (1) 
0.17628161957666352

$$$$
