DOCK.F40.P5yjp/L1004_ligand.pdbt
     RDKit          3D

 33 36  0  0  0  0  0  0  0  0999 V2000
   -1.0710   37.8410   22.9900 C   0  0  0  0  0  3  0  0  0  0  0  0
    1.2690   38.1390   24.0280 C   0  0  0  0  0  0  0  0  0  0  0  0
    0.3170   38.2520   23.0240 C   0  0  0  0  0  0  0  0  0  0  0  0
    0.9420   38.8090   21.9470 N   0  0  0  0  0  0  0  0  0  0  0  0
    2.2330   39.0570   22.1990 C   0  0  0  0  0  0  0  0  0  0  0  0
    3.2550   39.6030   21.4450 C   0  0  0  0  0  3  0  0  0  0  0  0
    4.5260   39.7550   21.9610 C   0  0  0  0  0  3  0  0  0  0  0  0
    4.7580   39.3480   23.2570 C   0  0  0  0  0  0  0  0  0  0  0  0
    6.0000   39.4830   23.7850 F   0  0  0  0  0  0  0  0  0  0  0  0
    3.7150   38.8000   24.0000 C   0  0  0  0  0  3  0  0  0  0  0  0
    2.4390   38.6330   23.5170 C   0  0  0  0  0  0  0  0  0  0  0  0
    0.5080   39.0390   21.0010 H   0  0  0  0  0  0  0  0  0  0  0  0
    0.0720   38.4840   26.2200 C   0  0  0  0  0  1  0  0  0  0  0  0
    0.9690   37.6380   25.3540 C   0  0  0  0  0  3  0  0  0  0  0  0
    0.2000   36.2900   25.2280 C   0  0  0  0  0  1  0  0  0  0  0  0
   -2.0430   39.0040   23.0710 C   0  0  0  0  0  0  0  0  0  0  0  0
   -2.0890   40.0970   22.3370 C   0  0  0  0  0  0  0  0  0  0  0  0
   -1.1730   40.3500   21.3000 O   0  0  0  0  0  0  0  0  0  0  0  0
   -3.2000   40.9920   22.7380 C   0  0  0  0  0  3  0  0  0  0  0  0
   -3.8180   40.3310   23.8380 N   0  0  0  0  0  0  0  0  0  0  0  0
   -3.1280   39.1140   24.0410 C   0  0  0  0  0  0  0  0  0  0  0  0
   -3.3620   38.2100   24.9140 O   0  0  0  0  0  0  0  0  0  0  0  0
   -1.5150   40.5300   20.3600 H   0  0  0  0  0  0  0  0  0  0  0  0
   -4.6290   40.6940   24.3800 H   0  0  0  0  0  0  0  0  0  0  0  0
   -4.1530   41.2670   21.6000 C   0  0  0  0  0  3  0  0  0  0  0  0
   -5.1060   40.1030   21.4000 C   0  0  0  0  0  1  0  0  0  0  0  0
   -4.9710   42.4810   21.9500 C   0  0  0  0  0  1  0  0  0  0  0  0
   -1.4820   36.8490   21.9980 C   0  0  0  0  0  0  0  0  0  0  0  0
   -1.9000   37.1730   20.7200 C   0  0  0  0  0  3  0  0  0  0  0  0
   -2.2590   36.2060   19.8000 C   0  0  0  0  0  3  0  0  0  0  0  0
   -2.2160   34.8660   20.1190 C   0  0  0  0  0  3  0  0  0  0  0  0
   -1.8030   34.5340   21.3870 C   0  0  0  0  0  3  0  0  0  0  0  0
   -1.4490   35.5030   22.2880 C   0  0  0  0  0  3  0  0  0  0  0  0
 30 31  1  0
 30 29  2  0
 31 32  2  0
 23 18  1  0
 29 28  1  0
 12  4  1  0
 18 17  1  0
 32 33  1  0
 26 25  1  0
  6  7  2  0
  6  5  1  0
 25 27  1  0
 25 19  1  0
  4  5  1  0
  4  3  1  0
  7  8  1  0
 28 33  2  0
 28  1  1  0
  5 11  2  0
 17 19  1  0
 17 16  2  0
 19 20  1  0
  1  3  1  0
  1 16  1  0
  3  2  2  0
 16 21  1  0
  8  9  1  0
  8 10  2  0
 11 10  1  0
 11  2  1  0
 20 21  1  0
 20 24  1  0
  2 14  1  0
 21 22  2  0
 15 14  1  0
 14 13  1  0
M  RAD  8   1   2   6   2   7   2  10   2  13   2  14   2  15   2  19   2
M  RAD  8  25   2  26   2  27   2  29   2  30   2  31   2  32   2  33   2
M  END
>  <_TriposChargeType>  (1) 
GASTEIGER

>  <SuCOS_score>  (1) 
0.2720729823105913

>  <Volume_score>  (1) 
0.4471679364027824

>  <Feature_score>  (1) 
0.09697802821840017

$$$$
