DOCK.F40.P5yjp/L1009_ligand.pdbt
     RDKit          3D

 34 38  0  0  0  0  0  0  0  0999 V2000
   -1.1500   37.9480   23.1640 C   0  0  0  0  0  3  0  0  0  0  0  0
    1.0020   38.0360   25.5330 C   0  0  0  0  0  1  0  0  0  0  0  0
    1.2110   38.3700   24.0920 C   0  0  0  0  0  0  0  0  0  0  0  0
    0.2890   38.3390   23.0690 C   0  0  0  0  0  0  0  0  0  0  0  0
    0.9670   38.7300   21.9770 N   0  0  0  0  0  0  0  0  0  0  0  0
    2.2420   39.0010   22.2550 C   0  0  0  0  0  0  0  0  0  0  0  0
    3.3340   39.4330   21.4930 C   0  0  0  0  0  3  0  0  0  0  0  0
    4.5460   39.6170   22.1230 C   0  0  0  0  0  3  0  0  0  0  0  0
    4.7360   39.3970   23.4670 C   0  0  0  0  0  0  0  0  0  0  0  0
    5.9640   39.5990   24.0330 F   0  0  0  0  0  0  0  0  0  0  0  0
    3.6610   38.9730   24.2130 C   0  0  0  0  0  3  0  0  0  0  0  0
    2.4310   38.7810   23.6010 C   0  0  0  0  0  0  0  0  0  0  0  0
    0.5800   38.8280   20.9970 H   0  0  0  0  0  0  0  0  0  0  0  0
   -2.0630   39.1090   23.1920 C   0  0  0  0  0  0  0  0  0  0  0  0
   -2.0880   40.1960   22.4570 C   0  0  0  0  0  0  0  0  0  0  0  0
   -1.2020   40.5360   21.4050 O   0  0  0  0  0  0  0  0  0  0  0  0
   -3.2020   41.0760   22.8670 C   0  0  0  0  0  3  0  0  0  0  0  0
   -3.8630   40.4050   23.8950 O   0  0  0  0  0  0  0  0  0  0  0  0
   -3.2020   39.2200   24.1310 C   0  0  0  0  0  0  0  0  0  0  0  0
   -3.5450   38.3940   25.0140 O   0  0  0  0  0  0  0  0  0  0  0  0
   -0.7250   41.4310   21.5320 H   0  0  0  0  0  0  0  0  0  0  0  0
   -4.2080   41.2770   21.7470 C   0  0  0  0  0  2  0  0  0  0  0  0
   -5.1660   42.3440   22.1340 C   0  0  0  0  0  0  0  0  0  0  0  0
   -4.8010   43.3180   23.0360 C   0  0  0  0  0  3  0  0  0  0  0  0
   -5.6710   44.3280   23.4200 C   0  0  0  0  0  3  0  0  0  0  0  0
   -6.9570   44.3680   22.8850 C   0  0  0  0  0  3  0  0  0  0  0  0
   -7.3060   43.3910   21.9870 C   0  0  0  0  0  3  0  0  0  0  0  0
   -6.4400   42.3900   21.6060 C   0  0  0  0  0  3  0  0  0  0  0  0
   -1.5110   36.9530   22.1390 C   0  0  0  0  0  0  0  0  0  0  0  0
   -2.0660   37.3190   20.9130 C   0  0  0  0  0  3  0  0  0  0  0  0
   -2.3860   36.3390   20.0000 C   0  0  0  0  0  3  0  0  0  0  0  0
   -2.1730   35.0030   20.2610 C   0  0  0  0  0  3  0  0  0  0  0  0
   -1.6190   34.6280   21.4830 C   0  0  0  0  0  3  0  0  0  0  0  0
   -1.3090   35.6090   22.3720 C   0  0  0  0  0  3  0  0  0  0  0  0
 31 32  1  0
 31 30  2  0
 32 33  2  0
 30 29  1  0
 13  5  1  0
 16 21  1  0
 16 15  1  0
 33 34  1  0
  7  8  2  0
  7  6  1  0
 28 27  2  0
 28 23  1  0
 22 23  1  0
 22 17  1  0
  5  6  1  0
  5  4  1  0
 27 26  1  0
  8  9  1  0
 23 24  2  0
 29 34  2  0
 29  1  1  0
  6 12  2  0
 15 17  1  0
 15 14  2  0
 17 18  1  0
 26 25  2  0
 24 25  1  0
  4  1  1  0
  4  3  2  0
  1 14  1  0
 14 19  1  0
  9 10  1  0
  9 11  2  0
 12  3  1  0
 12 11  1  0
 18 19  1  0
  3  2  1  0
 19 20  2  0
M  RAD  8   1   2   2   2   7   2   8   2  11   2  17   2  22   3  24   2
M  RAD  8  25   2  26   2  27   2  28   2  30   2  31   2  32   2  33   2
M  RAD  1  34   2
M  END
>  <_TriposChargeType>  (1) 
GASTEIGER

>  <SuCOS_score>  (1) 
0.2984448212507963

>  <Volume_score>  (1) 
0.4832615180643023

>  <Feature_score>  (1) 
0.11362812443729031

$$$$
