DOCK.F40.P5yjp/L1011_ligand.pdbt
     RDKit          3D

 30 33  0  0  0  0  0  0  0  0999 V2000
   -4.3170   38.8750   21.7500 C   0  0  0  0  0  0  0  0  0  0  0  0
   -3.2260   39.7300   21.8550 C   0  0  0  0  0  0  0  0  0  0  0  0
   -2.1280   39.0670   21.3760 N   0  0  0  0  0  4  0  0  0  0  0  0
   -2.4840   37.8330   20.9720 C   0  0  0  0  0  0  0  0  0  0  0  0
   -1.7990   36.7690   20.4120 C   0  0  0  0  0  3  0  0  0  0  0  0
   -2.4150   35.5810   20.0720 C   0  0  0  0  0  3  0  0  0  0  0  0
   -3.7720   35.4840   20.3150 C   0  0  0  0  0  0  0  0  0  0  0  0
   -4.3870   34.3210   19.9900 F   0  0  0  0  0  0  0  0  0  0  0  0
   -4.4640   36.5280   20.8690 C   0  0  0  0  0  3  0  0  0  0  0  0
   -3.8300   37.7070   21.2000 C   0  0  0  0  0  0  0  0  0  0  0  0
   -3.3490   41.0910   22.3430 C   0  0  0  0  0  0  0  0  0  0  0  0
   -3.8160   41.3260   23.5040 O   0  0  0  0  0  1  0  0  0  0  0  0
   -2.9810   42.2000   21.6000 O   0  0  0  0  0  0  0  0  0  0  0  0
   -5.7330   39.1370   22.1070 C   0  0  0  0  0  2  0  0  0  0  0  0
   -7.7550   41.0010   19.4000 C   0  0  0  0  0  1  0  0  0  0  0  0
   -6.9370   40.8090   20.5920 N   0  0  0  0  0  0  0  0  0  0  0  0
   -6.5870   41.9790   21.3370 C   0  0  0  0  0  1  0  0  0  0  0  0
   -6.5400   39.5030   20.9340 C   0  0  0  0  0  0  0  0  0  0  0  0
   -6.8990   38.5370   20.1800 O   0  0  0  0  0  0  0  0  0  0  0  0
   -0.8040   39.6460   21.3950 C   0  0  0  0  0  2  0  0  0  0  0  0
   -0.1410   39.3370   22.6870 C   0  0  0  0  0  0  0  0  0  0  0  0
   -0.9050   38.8930   23.7630 C   0  0  0  0  0  3  0  0  0  0  0  0
   -0.3050   38.4810   24.9440 C   0  0  0  0  0  3  0  0  0  0  0  0
    1.0610   38.5130   25.0480 C   0  0  0  0  0  3  0  0  0  0  0  0
    1.8660   38.9420   24.0230 C   0  0  0  0  0  0  0  0  0  0  0  0
    3.2540   39.0000   24.2000 C   0  0  0  0  0  3  0  0  0  0  0  0
    4.0120   39.4870   23.1580 C   0  0  0  0  0  3  0  0  0  0  0  0
    3.4680   39.9080   21.9790 C   0  0  0  0  0  3  0  0  0  0  0  0
    2.0670   39.8280   21.8510 C   0  0  0  0  0  3  0  0  0  0  0  0
    1.2500   39.3530   22.8470 C   0  0  0  0  0  0  0  0  0  0  0  0
 15 16  1  0
  8  7  1  0
  6  7  2  0
  6  5  1  0
 19 18  2  0
  7  9  1  0
  5  4  2  0
 16 18  1  0
 16 17  1  0
  9 10  2  0
 18 14  1  0
  4 10  1  0
  4  3  1  0
 10  1  1  0
  3 20  1  0
  3  2  1  0
 20 21  1  0
 13 11  2  0
  1  2  2  0
  1 14  1  0
 29 28  1  0
 29 30  2  0
  2 11  1  0
 28 27  2  0
 11 12  1  0
 21 30  1  0
 21 22  2  0
 30 25  1  0
 27 26  1  0
 22 23  1  0
 25 26  2  0
 25 24  1  0
 23 24  2  0
M  RAD  8   5   2   6   2   9   2  14   3  15   2  17   2  20   3  22   2
M  CHG  2   3   1  12  -1
M  RAD  6  23   2  24   2  26   2  27   2  28   2  29   2
M  END
>  <_TriposChargeType>  (1) 
GASTEIGER

>  <SuCOS_score>  (1) 
0.3710928119058816

>  <Volume_score>  (1) 
0.5434758590211026

>  <Feature_score>  (1) 
0.19870976479066055

$$$$
