DOCK.F40.P5yjp/L1012_ligand.pdbt
     RDKit          3D

 30 32  0  0  0  0  0  0  0  0999 V2000
   -2.0040   37.7250   22.8060 N   0  0  0  0  0  0  0  0  0  0  0  0
   -2.0090   37.5580   23.8430 H   0  0  0  0  0  0  0  0  0  0  0  0
   -3.3660   34.6800   20.2610 C   0  0  0  0  0  0  0  0  0  0  0  0
   -3.9590   35.9220   20.1990 C   0  0  0  0  0  3  0  0  0  0  0  0
   -3.5000   36.9260   21.0450 C   0  0  0  0  0  3  0  0  0  0  0  0
   -2.4770   36.7220   21.9370 C   0  0  0  0  0  0  0  0  0  0  0  0
   -1.8990   35.4740   21.9820 C   0  0  0  0  0  0  0  0  0  0  0  0
   -2.3240   34.4490   21.1610 C   0  0  0  0  0  3  0  0  0  0  0  0
   -0.5940   35.1720   23.1050 S   0  0  2  0  0  6  0  0  0  0  0  0
   -0.0670   33.4720   22.9990 C   0  0  0  0  0  1  0  0  0  0  0  0
   -1.0470   35.3810   24.5390 O   0  0  0  0  0  0  0  0  0  0  0  0
    0.6000   36.0220   22.8000 O   0  0  0  0  0  0  0  0  0  0  0  0
   -3.8220   33.6030   19.3890 C   0  0  0  0  0  0  0  0  0  0  0  0
   -4.5980   32.7140   19.8130 O   0  0  0  0  0  0  0  0  0  0  0  0
   -2.1020   34.0000   17.7170 C   0  0  0  0  0  1  0  0  0  0  0  0
   -3.3990   33.5530   18.0810 O   0  0  0  0  0  0  0  0  0  0  0  0
   -1.4250   39.2030   22.2040 S   0  0  2  0  0  6  0  0  0  0  0  0
   -1.9640   40.3540   23.0080 O   0  0  0  0  0  0  0  0  0  0  0  0
   -1.9490   39.4000   20.8000 O   0  0  0  0  0  0  0  0  0  0  0  0
    0.3200   39.3530   22.2380 C   0  0  0  0  0  0  0  0  0  0  0  0
    1.3410   39.7720   20.9460 S   0  0  0  0  0  0  0  0  0  0  0  0
    2.8470   39.7070   21.7430 C   0  0  0  0  0  0  0  0  0  0  0  0
    4.1680   39.9320   21.3300 C   0  0  0  0  0  3  0  0  0  0  0  0
    5.2160   39.8000   22.2290 C   0  0  0  0  0  3  0  0  0  0  0  0
    4.8590   39.4460   23.5030 C   0  0  0  0  0  0  0  0  0  0  0  0
    5.8880   39.3120   24.4000 F   0  0  0  0  0  0  0  0  0  0  0  0
    3.5820   39.2220   23.9270 C   0  0  0  0  0  3  0  0  0  0  0  0
    2.5070   39.3550   23.0180 C   0  0  0  0  0  0  0  0  0  0  0  0
    1.1910   39.1690   23.2760 C   0  0  0  0  0  0  0  0  0  0  0  0
    0.6100   38.7740   24.6320 C   0  0  0  0  0  1  0  0  0  0  0  0
 15 16  1  0
 16 13  1  0
 13 14  2  0
 13  3  1  0
  4  3  2  0
  4  5  1  0
  3  8  1  0
 19 17  2  0
 21 22  1  0
 21 20  1  0
  5  6  2  0
  8  7  2  0
 23 22  2  0
 23 24  1  0
 22 28  1  0
  6  7  1  0
  6  1  1  0
  7  9  1  0
 17 20  1  0
 17  1  1  1
 17 18  2  0
 24 25  2  0
 20 29  2  0
 12  9  2  0
  1  2  1  0
  9 10  1  1
 28 29  1  0
 28 27  2  0
  9 11  2  0
 29 30  1  0
 25 27  1  0
 25 26  1  0
M  RAD  8   4   2   5   2   8   2  10   2  15   2  23   2  24   2  27   2
M  RAD  1  30   2
M  END
>  <_TriposChargeType>  (1) 
GASTEIGER

>  <SuCOS_score>  (1) 
0.3031284018064244

>  <Volume_score>  (1) 
0.41710934041611336

>  <Feature_score>  (1) 
0.18914746319673545

$$$$
