DOCK.F40.P5yjp/L1014_ligand.pdbt
     RDKit          3D

 24 27  0  0  0  0  0  0  0  0999 V2000
   -0.7690   39.5660   23.5450 C   0  0  0  0  0  2  0  0  0  0  0  0
    0.8830   38.2740   25.0260 C   0  0  0  0  0  1  0  0  0  0  0  0
    1.9450   38.9070   24.2670 C   0  0  0  0  0  0  0  0  0  0  0  0
    3.3010   38.7120   24.5980 C   0  0  0  0  0  3  0  0  0  0  0  0
    4.3380   39.2010   23.8570 C   0  0  0  0  0  3  0  0  0  0  0  0
    4.0550   39.9180   22.7330 C   0  0  0  0  0  3  0  0  0  0  0  0
    2.7390   40.1410   22.3610 C   0  0  0  0  0  0  0  0  0  0  0  0
    2.4920   40.8210   21.1990 C   0  0  0  0  0  3  0  0  0  0  0  0
    1.2060   41.0040   20.8010 C   0  0  0  0  0  3  0  0  0  0  0  0
    0.1920   40.5280   21.5420 C   0  0  0  0  0  3  0  0  0  0  0  0
    0.3670   39.8140   22.7660 C   0  0  0  0  0  0  0  0  0  0  0  0
    1.6740   39.6400   23.1280 C   0  0  0  0  0  0  0  0  0  0  0  0
   -1.8570   39.0750   22.6180 N   0  0  0  0  0  0  0  0  0  0  0  0
   -2.9250   39.7480   22.1710 C   0  0  0  0  0  0  0  0  0  0  0  0
   -3.6970   38.8440   21.3990 C   0  0  0  0  0  3  0  0  0  0  0  0
   -3.0800   37.6270   21.3920 C   0  0  0  0  0  0  0  0  0  0  0  0
   -3.3890   36.3880   20.8260 C   0  0  0  0  0  3  0  0  0  0  0  0
   -2.5740   35.2980   21.0090 C   0  0  0  0  0  3  0  0  0  0  0  0
   -1.4450   35.4700   21.7690 C   0  0  0  0  0  3  0  0  0  0  0  0
   -1.1430   36.7020   22.3270 C   0  0  0  0  0  3  0  0  0  0  0  0
   -1.9400   37.8090   22.1610 C   0  0  0  0  0  0  0  0  0  0  0  0
   -3.3070   41.1210   22.3720 C   0  0  0  0  0  0  0  0  0  0  0  0
   -4.0300   41.4060   23.4010 O   0  0  0  0  0  1  0  0  0  0  0  0
   -2.9980   42.2000   21.6000 O   0  0  0  0  0  0  0  0  0  0  0  0
  9  8  2  0
  9 10  1  0
 17 18  1  0
 17 16  2  0
 18 19  2  0
  8  7  1  0
 16 15  1  0
 16 21  1  0
 15 14  2  0
 10 11  2  0
 24 22  2  0
 19 20  1  0
 21 20  2  0
 21 13  1  0
 14 22  1  0
 14 13  1  0
  7  6  2  0
  7 12  1  0
 22 23  1  0
 13  1  1  0
  6  5  1  0
 11 12  1  0
 11  1  1  0
 12  3  2  0
  5  4  2  0
  3  4  1  0
  3  2  1  0
M  RAD  8   1   3   2   2   4   2   5   2   6   2   8   2   9   2  10   2
M  CHG  1  23  -1
M  RAD  5  15   2  17   2  18   2  19   2  20   2
M  END
>  <_TriposChargeType>  (1) 
GASTEIGER

>  <SuCOS_score>  (1) 
0.3587699981611455

>  <Volume_score>  (1) 
0.3982985305491106

>  <Feature_score>  (1) 
0.3192414657731805

$$$$
