DOCK.F40.P5yjp/L1010_ligand.pdbt
     RDKit          3D

 24 27  0  0  0  0  0  0  0  0999 V2000
   -3.0650   39.7180   21.8490 C   0  0  0  0  0  0  0  0  0  0  0  0
   -4.1120   38.8540   21.6060 C   0  0  0  0  0  3  0  0  0  0  0  0
   -3.5550   37.6670   21.1930 C   0  0  0  0  0  0  0  0  0  0  0  0
   -4.1280   36.4460   20.8120 C   0  0  0  0  0  3  0  0  0  0  0  0
   -3.3550   35.3770   20.4300 C   0  0  0  0  0  3  0  0  0  0  0  0
   -2.0000   35.5310   20.4260 C   0  0  0  0  0  3  0  0  0  0  0  0
   -1.4330   36.7310   20.7990 C   0  0  0  0  0  3  0  0  0  0  0  0
   -2.2040   37.8240   21.1890 C   0  0  0  0  0  0  0  0  0  0  0  0
   -1.9170   39.0710   21.5880 N   0  0  0  0  0  0  0  0  0  0  0  0
   -3.8180   41.2840   23.4000 O   0  0  0  0  0  1  0  0  0  0  0  0
   -3.2400   41.0950   22.3100 C   0  0  0  0  0  0  0  0  0  0  0  0
   -2.8000   42.1960   21.6000 O   0  0  0  0  0  0  0  0  0  0  0  0
   -0.6020   39.6030   21.7110 C   0  0  0  0  0  2  0  0  0  0  0  0
    0.0910   39.2450   22.9490 C   0  0  0  0  0  0  0  0  0  0  0  0
   -0.5610   38.8860   24.1050 C   0  0  0  0  0  3  0  0  0  0  0  0
    0.1990   38.5700   25.2080 C   0  0  0  0  0  3  0  0  0  0  0  0
    1.5770   38.6000   25.1990 C   0  0  0  0  0  3  0  0  0  0  0  0
    2.2460   38.9630   24.0310 C   0  0  0  0  0  0  0  0  0  0  0  0
    3.6230   39.0000   24.0020 C   0  0  0  0  0  3  0  0  0  0  0  0
    4.2530   39.3630   22.8310 C   0  0  0  0  0  3  0  0  0  0  0  0
    3.5360   39.6830   21.7160 C   0  0  0  0  0  0  0  0  0  0  0  0
    4.1210   40.0470   20.5390 F   0  0  0  0  0  0  0  0  0  0  0  0
    2.1680   39.6350   21.7840 C   0  0  0  0  0  3  0  0  0  0  0  0
    1.4710   39.2740   22.9430 C   0  0  0  0  0  0  0  0  0  0  0  0
  6  5  2  0
  6  7  1  0
  5  4  1  0
 22 21  1  0
  7  8  2  0
  4  3  2  0
  8  3  1  0
  8  9  1  0
  3  2  1  0
  9 13  1  0
  9  1  1  0
 12 11  2  0
  2  1  2  0
 13 14  1  0
 21 23  1  0
 21 20  2  0
 23 24  2  0
  1 11  1  0
 11 10  1  0
 20 19  1  0
 24 14  1  0
 24 18  1  0
 14 15  2  0
 19 18  2  0
 18 17  1  0
 15 16  1  0
 17 16  2  0
M  RAD  8   2   2   4   2   5   2   6   2   7   2  13   3  15   2  16   2
M  CHG  1  10  -1
M  RAD  4  17   2  19   2  20   2  23   2
M  END
>  <_TriposChargeType>  (1) 
GASTEIGER

>  <SuCOS_score>  (1) 
0.34552476651430303

>  <Volume_score>  (1) 
0.44702242846094353

>  <Feature_score>  (1) 
0.24402710456766252

$$$$
