DOCK.F40.P4kp0/L1001_ligand.pdbt
     RDKit          3D

 32 35  0  0  0  0  0  0  0  0999 V2000
   -4.6970   38.4360   21.7980 C   0  0  0  0  0  0  0  0  0  0  0  0
   -3.5420   39.2190   21.9400 C   0  0  0  0  0  0  0  0  0  0  0  0
   -2.5080   38.5880   21.3760 N   0  0  0  0  0  4  0  0  0  0  0  0
   -2.9710   37.4280   20.8830 C   0  0  0  0  0  0  0  0  0  0  0  0
   -2.3010   36.3970   20.1960 C   0  0  0  0  0  3  0  0  0  0  0  0
   -2.9600   35.2850   19.7700 C   0  0  0  0  0  3  0  0  0  0  0  0
   -4.3080   35.1430   20.0040 C   0  0  0  0  0  0  0  0  0  0  0  0
   -5.0030   34.0560   19.5990 F   0  0  0  0  0  0  0  0  0  0  0  0
   -4.9550   36.1660   20.6820 C   0  0  0  0  0  3  0  0  0  0  0  0
   -4.3090   37.3140   21.1290 C   0  0  0  0  0  0  0  0  0  0  0  0
   -3.5320   40.5110   22.6080 C   0  0  0  0  0  0  0  0  0  0  0  0
   -4.0000   40.6330   23.7470 O   0  0  0  0  0  1  0  0  0  0  0  0
   -2.9990   41.6000   21.9610 O   0  0  0  0  0  0  0  0  0  0  0  0
   -6.0070   38.8170   22.2920 C   0  0  0  0  0  2  0  0  0  0  0  0
   -7.6840   38.2570   20.6070 C   0  0  0  0  0  0  0  0  0  0  0  0
   -7.2010   39.0990   19.8000 O   0  0  0  0  0  0  0  0  0  0  0  0
   -7.1450   38.0590   21.9080 N   0  0  0  0  0  0  0  0  0  0  0  0
   -7.7790   37.0590   22.7600 C   0  0  0  0  0  1  0  0  0  0  0  0
   -8.7660   37.5120   20.1990 O   0  0  0  0  0  0  0  0  0  0  0  0
  -10.0070   36.0190   18.8320 C   0  0  0  0  0  1  0  0  0  0  0  0
   -8.6850   36.2810   19.5140 C   0  0  0  0  0  2  0  0  0  0  0  0
   -1.1430   39.0120   21.2840 C   0  0  0  0  0  2  0  0  0  0  0  0
   -0.3370   38.6320   22.4660 C   0  0  0  0  0  0  0  0  0  0  0  0
   -0.8160   37.8780   23.5170 C   0  0  0  0  0  3  0  0  0  0  0  0
   -0.0190   37.5440   24.6100 C   0  0  0  0  0  3  0  0  0  0  0  0
    1.2930   37.9990   24.6120 C   0  0  0  0  0  3  0  0  0  0  0  0
    1.8140   38.7570   23.5820 C   0  0  0  0  0  0  0  0  0  0  0  0
    3.1150   39.2000   23.6000 C   0  0  0  0  0  3  0  0  0  0  0  0
    3.5970   39.9510   22.5580 C   0  0  0  0  0  3  0  0  0  0  0  0
    2.8210   40.2860   21.4750 C   0  0  0  0  0  3  0  0  0  0  0  0
    1.5110   39.8260   21.4830 C   0  0  0  0  0  3  0  0  0  0  0  0
    0.9720   39.0680   22.5020 C   0  0  0  0  0  0  0  0  0  0  0  0
 20 21  1  0
 21 19  1  0
  8  7  1  0
  6  7  2  0
  6  5  1  0
 16 15  2  0
  7  9  1  0
  5  4  2  0
 19 15  1  0
 15 17  1  0
  9 10  2  0
  4 10  1  0
  4  3  1  0
 10  1  1  0
 22  3  1  0
 22 23  1  0
  3  2  1  0
 30 31  1  0
 30 29  2  0
 31 32  2  0
  1  2  2  0
  1 14  1  0
 17 14  1  0
 17 18  1  0
  2 11  1  0
 13 11  2  0
 23 32  1  0
 23 24  2  0
 32 27  1  0
 29 28  1  0
 11 12  1  0
 24 25  1  0
 27 28  2  0
 27 26  1  0
 25 26  2  0
M  RAD  8   5   2   6   2   9   2  14   3  18   2  20   2  21   3  22   3
M  CHG  2   3   1  12  -1
M  RAD  7  24   2  25   2  26   2  28   2  29   2  30   2  31   2
M  END
>  <_TriposChargeType>  (1) 
GASTEIGER

>  <SuCOS_score>  (1) 
0.29610386884099804

>  <Volume_score>  (1) 
0.4265989174859163

>  <Feature_score>  (1) 
0.1656088201960798

$$$$
