DOCK.F40.P4kp0/L1009_ligand.pdbt
     RDKit          3D

 34 38  0  0  0  0  0  0  0  0999 V2000
   -2.2460   38.6970   22.7530 C   0  0  0  0  0  3  0  0  0  0  0  0
    0.2770   37.9690   24.5830 C   0  0  0  0  0  1  0  0  0  0  0  0
    0.2660   38.7350   23.3010 C   0  0  0  0  0  0  0  0  0  0  0  0
   -0.8170   39.0550   22.5120 C   0  0  0  0  0  0  0  0  0  0  0  0
   -0.3040   39.7520   21.4840 N   0  0  0  0  0  0  0  0  0  0  0  0
    1.0190   39.8840   21.5840 C   0  0  0  0  0  0  0  0  0  0  0  0
    1.9980   40.5020   20.7980 C   0  0  0  0  0  3  0  0  0  0  0  0
    3.3120   40.4420   21.2130 C   0  0  0  0  0  3  0  0  0  0  0  0
    3.7080   39.8020   22.3630 C   0  0  0  0  0  0  0  0  0  0  0  0
    5.0280   39.7790   22.7210 F   0  0  0  0  0  0  0  0  0  0  0  0
    2.7430   39.1960   23.1340 C   0  0  0  0  0  3  0  0  0  0  0  0
    1.4150   39.2440   22.7370 C   0  0  0  0  0  0  0  0  0  0  0  0
   -0.8420   40.1660   20.6720 H   0  0  0  0  0  0  0  0  0  0  0  0
   -3.1300   39.8780   22.8450 C   0  0  0  0  0  0  0  0  0  0  0  0
   -4.2360   40.0670   23.5280 C   0  0  0  0  0  0  0  0  0  0  0  0
   -4.8800   39.1400   24.3840 O   0  0  0  0  0  0  0  0  0  0  0  0
   -4.7640   41.4270   23.2950 C   0  0  0  0  0  3  0  0  0  0  0  0
   -3.8610   42.0480   22.4340 O   0  0  0  0  0  0  0  0  0  0  0  0
   -2.8660   41.1450   22.1290 C   0  0  0  0  0  0  0  0  0  0  0  0
   -1.9060   41.4000   21.3580 O   0  0  0  0  0  0  0  0  0  0  0  0
   -5.8520   38.9460   24.1360 H   0  0  0  0  0  0  0  0  0  0  0  0
   -4.8000   42.2480   24.5720 C   0  0  0  0  0  2  0  0  0  0  0  0
   -4.9720   43.6830   24.2280 C   0  0  0  0  0  0  0  0  0  0  0  0
   -4.2000   44.6460   24.8370 C   0  0  0  0  0  3  0  0  0  0  0  0
   -4.3350   45.9950   24.5410 C   0  0  0  0  0  3  0  0  0  0  0  0
   -5.2800   46.4000   23.6000 C   0  0  0  0  0  3  0  0  0  0  0  0
   -6.0420   45.4290   23.0000 C   0  0  0  0  0  3  0  0  0  0  0  0
   -5.9040   44.0900   23.2960 C   0  0  0  0  0  3  0  0  0  0  0  0
   -2.7250   37.6910   21.7880 C   0  0  0  0  0  0  0  0  0  0  0  0
   -4.0640   37.3080   21.7190 C   0  0  0  0  0  3  0  0  0  0  0  0
   -4.4450   36.3580   20.7980 C   0  0  0  0  0  3  0  0  0  0  0  0
   -3.5410   35.7720   19.9390 C   0  0  0  0  0  3  0  0  0  0  0  0
   -2.2010   36.1500   20.0010 C   0  0  0  0  0  3  0  0  0  0  0  0
   -1.8420   37.0890   20.9170 C   0  0  0  0  0  3  0  0  0  0  0  0
 32 33  2  0
 32 31  1  0
 33 34  1  0
 13  5  1  0
  7  8  2  0
  7  6  1  0
 31 30  2  0
 34 29  2  0
  8  9  1  0
 20 19  2  0
  5  6  1  0
  5  4  1  0
  6 12  2  0
 30 29  1  0
 29  1  1  0
 19 18  1  0
 19 14  1  0
  9 10  1  0
  9 11  2  0
 18 17  1  0
  4  1  1  0
  4  3  2  0
 12 11  1  0
 12  3  1  0
  1 14  1  0
 14 15  2  0
 27 28  2  0
 27 26  1  0
 17 15  1  0
 17 22  1  0
 28 23  1  0
  3  2  1  0
 15 16  1  0
 26 25  2  0
 21 16  1  0
 23 22  1  0
 23 24  2  0
 25 24  1  0
M  RAD  8   1   2   2   2   7   2   8   2  11   2  17   2  22   3  24   2
M  RAD  8  25   2  26   2  27   2  28   2  30   2  31   2  32   2  33   2
M  RAD  1  34   2
M  END
>  <_TriposChargeType>  (1) 
GASTEIGER

>  <SuCOS_score>  (1) 
0.3146399856520428

>  <Volume_score>  (1) 
0.4970721467241189

>  <Feature_score>  (1) 
0.13220782457996672

$$$$
