DOCK.F40.P4kp0/L1005_ligand.pdbt
     RDKit          3D

 31 34  0  0  0  0  0  0  0  0999 V2000
   -4.6300   38.4790   21.7630 C   0  0  0  0  0  0  0  0  0  0  0  0
   -3.4530   39.2500   21.8870 C   0  0  0  0  0  0  0  0  0  0  0  0
   -2.4350   38.6170   21.3210 N   0  0  0  0  0  4  0  0  0  0  0  0
   -2.9110   37.4130   20.8160 C   0  0  0  0  0  0  0  0  0  0  0  0
   -2.1920   36.4260   20.1770 C   0  0  0  0  0  3  0  0  0  0  0  0
   -2.8870   35.2720   19.7890 C   0  0  0  0  0  3  0  0  0  0  0  0
   -4.2310   35.1660   20.0510 C   0  0  0  0  0  0  0  0  0  0  0  0
   -4.9300   34.0410   19.6740 F   0  0  0  0  0  0  0  0  0  0  0  0
   -4.9120   36.1840   20.6960 C   0  0  0  0  0  3  0  0  0  0  0  0
   -4.2610   37.3400   21.0940 C   0  0  0  0  0  0  0  0  0  0  0  0
   -3.4760   40.5340   22.5890 C   0  0  0  0  0  0  0  0  0  0  0  0
   -2.9990   41.6000   22.0660 O   0  0  0  0  0  1  0  0  0  0  0  0
   -3.9990   40.7220   23.8470 O   0  0  0  0  0  0  0  0  0  0  0  0
   -5.9370   38.8750   22.2950 C   0  0  0  0  0  2  0  0  0  0  0  0
   -7.7190   38.3210   20.6040 C   0  0  0  0  0  0  0  0  0  0  0  0
   -7.2000   39.1440   19.7880 O   0  0  0  0  0  0  0  0  0  0  0  0
   -7.0950   38.1770   21.8720 N   0  0  0  0  0  0  0  0  0  0  0  0
   -7.5760   37.4660   22.5180 H   0  0  0  0  0  0  0  0  0  0  0  0
   -8.7970   36.2690   19.7900 C   0  0  0  0  0  1  0  0  0  0  0  0
   -8.8560   37.6000   20.2490 O   0  0  0  0  0  0  0  0  0  0  0  0
   -1.0360   39.0030   21.2470 C   0  0  0  0  0  2  0  0  0  0  0  0
   -0.3250   38.6610   22.4630 C   0  0  0  0  0  0  0  0  0  0  0  0
   -0.9430   37.9270   23.4640 C   0  0  0  0  0  3  0  0  0  0  0  0
   -0.3190   37.4670   24.6010 C   0  0  0  0  0  3  0  0  0  0  0  0
    1.0200   37.7720   24.7310 C   0  0  0  0  0  3  0  0  0  0  0  0
    1.6780   38.4910   23.7860 C   0  0  0  0  0  0  0  0  0  0  0  0
    2.9920   38.8000   24.0040 C   0  0  0  0  0  3  0  0  0  0  0  0
    3.7030   39.5750   23.0960 C   0  0  0  0  0  3  0  0  0  0  0  0
    3.0370   40.0270   21.9610 C   0  0  0  0  0  3  0  0  0  0  0  0
    1.7130   39.7180   21.7340 C   0  0  0  0  0  3  0  0  0  0  0  0
    1.0140   38.9500   22.6310 C   0  0  0  0  0  0  0  0  0  0  0  0
  8  7  1  0
 16 15  2  0
  6  7  2  0
  6  5  1  0
 19 20  1  0
  7  9  1  0
  5  4  2  0
 20 15  1  0
 15 17  1  0
  9 10  2  0
  4 10  1  0
  4  3  1  0
 10  1  1  0
 21  3  1  0
 21 22  1  0
  3  2  1  0
 30 29  1  0
 30 31  2  0
  1  2  2  0
  1 14  1  0
 17 14  1  0
 17 18  1  0
  2 11  1  0
 29 28  2  0
 12 11  1  0
 22 31  1  0
 22 23  2  0
 11 13  2  0
 31 26  1  0
 28 27  1  0
 23 24  1  0
 26 27  2  0
 26 25  1  0
 24 25  2  0
M  RAD  8   5   2   6   2   9   2  14   3  19   2  21   3  23   2  24   2
M  CHG  2   3   1  12  -1
M  RAD  5  25   2  27   2  28   2  29   2  30   2
M  END
>  <_TriposChargeType>  (1) 
GASTEIGER

>  <SuCOS_score>  (1) 
0.2797463628695061

>  <Volume_score>  (1) 
0.4278310728856545

>  <Feature_score>  (1) 
0.13166165285335774

$$$$
