DOCK.F40.P4kp0/L1002_ligand.pdbt
     RDKit          3D

 40 44  0  0  0  0  0  0  0  0999 V2000
   -0.8360   34.6430   25.0810 C   0  0  0  0  0  3  0  0  0  0  0  0
    1.7780   30.0220   22.2490 C   0  0  0  0  0  0  0  0  0  0  0  0
    2.6290   29.9920   23.3360 C   0  0  0  0  0  3  0  0  0  0  0  0
    2.4530   30.9020   24.3400 C   0  0  0  0  0  3  0  0  0  0  0  0
    1.4230   31.8360   24.2480 C   0  0  0  0  0  0  0  0  0  0  0  0
    1.0030   32.8510   25.0740 C   0  0  0  0  0  0  0  0  0  0  0  0
   -0.0810   33.4940   24.5130 C   0  0  0  0  0  0  0  0  0  0  0  0
   -0.3350   32.8800   23.3380 N   0  0  0  0  0  0  0  0  0  0  0  0
    0.5610   31.8750   23.1590 C   0  0  0  0  0  0  0  0  0  0  0  0
    0.7530   30.9450   22.1470 C   0  0  0  0  0  3  0  0  0  0  0  0
   -1.0760   33.0790   22.6300 H   0  0  0  0  0  0  0  0  0  0  0  0
    3.3950   28.4010   21.3310 C   0  0  0  0  0  1  0  0  0  0  0  0
    2.0140   29.0070   21.1820 C   0  0  0  0  0  2  0  0  0  0  0  0
    1.6300   33.1910   26.3620 C   0  0  0  0  0  2  0  0  0  0  0  0
    1.1650   32.3570   27.5010 C   0  0  0  0  0  2  0  0  0  0  0  0
    1.8280   32.7660   28.7120 N   0  0  0  0  0  0  0  0  0  0  0  0
    3.1810   32.5570   29.0070 C   0  0  0  0  0  0  0  0  0  0  0  0
    3.7990   33.0230   30.3050 C   0  0  0  0  0  1  0  0  0  0  0  0
    3.9040   31.9640   28.1630 O   0  0  0  0  0  0  0  0  0  0  0  0
    1.2370   33.2660   29.4380 H   0  0  0  0  0  0  0  0  0  0  0  0
   -0.6580   35.8720   24.2370 C   0  0  0  0  0  0  0  0  0  0  0  0
   -0.1370   37.0210   24.5440 C   0  0  0  0  0  0  0  0  0  0  0  0
    0.3960   37.3770   25.7910 O   0  0  0  0  0  0  0  0  0  0  0  0
   -0.1590   37.9670   23.4020 C   0  0  0  0  0  3  0  0  0  0  0  0
   -0.5880   37.1580   22.2240 C   0  0  0  0  0  2  0  0  0  0  0  0
   -1.0900   35.9120   22.8460 C   0  0  0  0  0  0  0  0  0  0  0  0
   -1.7830   35.0410   22.2320 O   0  0  0  0  0  0  0  0  0  0  0  0
    1.3150   37.8050   25.7870 H   0  0  0  0  0  0  0  0  0  0  0  0
    1.1660   38.5930   23.1780 C   0  0  0  0  0  0  0  0  0  0  0  0
    1.3670   39.3750   22.0650 C   0  0  0  0  0  3  0  0  0  0  0  0
    2.5930   39.9770   21.8150 C   0  0  0  0  0  3  0  0  0  0  0  0
    3.6340   39.7850   22.7070 C   0  0  0  0  0  3  0  0  0  0  0  0
    3.4310   38.9990   23.8240 C   0  0  0  0  0  3  0  0  0  0  0  0
    2.2060   38.4100   24.0540 C   0  0  0  0  0  3  0  0  0  0  0  0
   -2.2650   34.2850   25.2150 C   0  0  0  0  0  0  0  0  0  0  0  0
   -3.1730   35.2950   25.4050 C   0  0  0  0  0  3  0  0  0  0  0  0
   -4.5130   35.0280   25.5370 C   0  0  0  0  0  3  0  0  0  0  0  0
   -4.9650   33.7280   25.4820 C   0  0  0  0  0  3  0  0  0  0  0  0
   -4.0350   32.7300   25.2900 C   0  0  0  0  0  3  0  0  0  0  0  0
   -2.6880   32.9960   25.1560 C   0  0  0  0  0  3  0  0  0  0  0  0
 13 12  1  0
 13  2  1  0
 31 30  2  0
 31 32  1  0
 30 29  1  0
 10  2  2  0
 10  9  1  0
 25 26  1  0
 25 24  1  0
 27 26  2  0
  2  3  1  0
 11  8  1  0
 32 33  2  0
 26 21  1  0
  9  8  1  0
  9  5  2  0
 29 24  1  0
 29 34  2  0
  3  4  2  0
  8  7  1  0
 24 22  1  0
 33 34  1  0
 21 22  2  0
 21  1  1  0
  5  4  1  0
  5  6  1  0
  7  6  2  0
  7  1  1  0
 22 23  1  0
  6 14  1  0
  1 35  1  0
 40 35  1  0
 40 39  2  0
 35 36  2  0
 39 38  1  0
 36 37  1  0
 38 37  2  0
 28 23  1  0
 14 15  1  0
 15 16  1  0
 19 17  2  0
 16 17  1  0
 16 20  1  0
 17 18  1  0
M  RAD  8   1   2   3   2   4   2  10   2  12   2  13   3  14   3  15   3
M  RAD  8  18   2  24   2  25   3  30   2  31   2  32   2  33   2  34   2
M  RAD  5  36   2  37   2  38   2  39   2  40   2
M  END
>  <_TriposChargeType>  (1) 
GASTEIGER

>  <SuCOS_score>  (1) 
0.13076271569330233

>  <Volume_score>  (1) 
0.18922499448001762

>  <Feature_score>  (1) 
0.07230043690658708

$$$$
