DOCK.F40.P4kp0/L1010_ligand.pdbt
     RDKit          3D

 24 27  0  0  0  0  0  0  0  0999 V2000
   -3.0580   39.6270   21.6100 C   0  0  0  0  0  0  0  0  0  0  0  0
   -4.2450   38.9330   21.5000 C   0  0  0  0  0  3  0  0  0  0  0  0
   -3.9160   37.6340   21.1990 C   0  0  0  0  0  0  0  0  0  0  0  0
   -4.7010   36.4950   20.9740 C   0  0  0  0  0  3  0  0  0  0  0  0
   -4.1370   35.2770   20.6820 C   0  0  0  0  0  3  0  0  0  0  0  0
   -2.7780   35.1980   20.6140 C   0  0  0  0  0  3  0  0  0  0  0  0
   -2.0010   36.3160   20.8330 C   0  0  0  0  0  3  0  0  0  0  0  0
   -2.5590   37.5580   21.1300 C   0  0  0  0  0  0  0  0  0  0  0  0
   -2.0490   38.7710   21.3810 N   0  0  0  0  0  0  0  0  0  0  0  0
   -2.2720   41.7800   21.1990 O   0  0  0  0  0  1  0  0  0  0  0  0
   -2.9790   41.0530   21.9250 C   0  0  0  0  0  0  0  0  0  0  0  0
   -3.6490   41.6350   22.9860 O   0  0  0  0  0  0  0  0  0  0  0  0
   -0.6590   39.0820   21.3990 C   0  0  0  0  0  2  0  0  0  0  0  0
    0.0370   38.7070   22.6300 C   0  0  0  0  0  0  0  0  0  0  0  0
   -0.5800   38.0860   23.6890 C   0  0  0  0  0  3  0  0  0  0  0  0
    0.1800   37.7820   24.7960 C   0  0  0  0  0  3  0  0  0  0  0  0
    1.5240   38.0730   24.8820 C   0  0  0  0  0  3  0  0  0  0  0  0
    2.1580   38.7020   23.8110 C   0  0  0  0  0  0  0  0  0  0  0  0
    3.5010   39.0020   23.8780 C   0  0  0  0  0  3  0  0  0  0  0  0
    4.0960   39.6240   22.8020 C   0  0  0  0  0  3  0  0  0  0  0  0
    3.3790   39.9420   21.6860 C   0  0  0  0  0  0  0  0  0  0  0  0
    3.9300   40.5570   20.6010 F   0  0  0  0  0  0  0  0  0  0  0  0
    2.0450   39.6280   21.6570 C   0  0  0  0  0  3  0  0  0  0  0  0
    1.3840   38.9970   22.7180 C   0  0  0  0  0  0  0  0  0  0  0  0
 22 21  1  0
  6  5  2  0
  6  7  1  0
  5  4  1  0
  7  8  2  0
  4  3  2  0
  8  3  1  0
  8  9  1  0
  3  2  1  0
 10 11  1  0
  9 13  1  0
  9  1  1  0
 13 14  1  0
  2  1  2  0
  1 11  1  0
 23 21  1  0
 23 24  2  0
 21 20  2  0
 11 12  2  0
 14 24  1  0
 14 15  2  0
 24 18  1  0
 20 19  1  0
 15 16  1  0
 18 19  2  0
 18 17  1  0
 16 17  2  0
M  RAD  8   2   2   4   2   5   2   6   2   7   2  13   3  15   2  16   2
M  CHG  1  10  -1
M  RAD  4  17   2  19   2  20   2  23   2
M  END
>  <_TriposChargeType>  (1) 
GASTEIGER

>  <SuCOS_score>  (1) 
0.30341757715321926

>  <Volume_score>  (1) 
0.4082421831841786

>  <Feature_score>  (1) 
0.19859297112225988

$$$$
