DOCK.F40.P4kp0/L1016_ligand.pdbt
     RDKit          3D

 29 32  0  0  0  0  0  0  0  0999 V2000
   -4.7780   38.4730   21.7920 C   0  0  0  0  0  0  0  0  0  0  0  0
   -3.6940   39.3370   22.0210 C   0  0  0  0  0  0  0  0  0  0  0  0
   -2.5900   38.8030   21.5430 N   0  0  0  0  0  4  0  0  0  0  0  0
   -2.9630   37.5530   20.9910 C   0  0  0  0  0  0  0  0  0  0  0  0
   -2.2510   36.5720   20.3630 C   0  0  0  0  0  3  0  0  0  0  0  0
   -2.8320   35.4290   19.8970 C   0  0  0  0  0  3  0  0  0  0  0  0
   -4.1910   35.2520   20.0650 C   0  0  0  0  0  3  0  0  0  0  0  0
   -4.9480   36.2070   20.6890 C   0  0  0  0  0  3  0  0  0  0  0  0
   -4.3050   37.3650   21.1500 C   0  0  0  0  0  0  0  0  0  0  0  0
   -3.8450   40.6240   22.6890 C   0  0  0  0  0  0  0  0  0  0  0  0
   -4.3580   40.7640   23.8170 O   0  0  0  0  0  1  0  0  0  0  0  0
   -3.4030   41.7820   22.0720 O   0  0  0  0  0  0  0  0  0  0  0  0
   -6.1920   38.6830   22.1730 C   0  0  0  0  0  2  0  0  0  0  0  0
   -8.8470   36.7290   20.1570 C   0  0  0  0  0  1  0  0  0  0  0  0
   -7.9620   37.1320   21.2240 N   0  0  0  0  0  0  0  0  0  0  0  0
   -7.9450   36.4040   22.4580 C   0  0  0  0  0  1  0  0  0  0  0  0
   -7.1090   38.2530   21.0800 C   0  0  0  0  0  0  0  0  0  0  0  0
   -7.1060   38.9240   20.0120 O   0  0  0  0  0  0  0  0  0  0  0  0
   -1.2430   39.1980   21.3970 C   0  0  0  0  0  2  0  0  0  0  0  0
   -0.2630   38.7560   22.4600 C   0  0  0  0  0  0  0  0  0  0  0  0
   -0.7340   38.0090   23.5090 C   0  0  0  0  0  3  0  0  0  0  0  0
    0.6210   37.8550   24.5240 S   0  0  0  0  0  0  0  0  0  0  0  0
    1.7610   38.7290   23.6130 C   0  0  0  0  0  0  0  0  0  0  0  0
    3.1260   39.0000   23.7890 C   0  0  0  0  0  3  0  0  0  0  0  0
    3.8330   39.6970   22.8410 C   0  0  0  0  0  3  0  0  0  0  0  0
    3.1260   40.1000   21.7410 C   0  0  0  0  0  0  0  0  0  0  0  0
    3.8060   40.7940   20.7890 F   0  0  0  0  0  0  0  0  0  0  0  0
    1.7990   39.8450   21.5560 C   0  0  0  0  0  3  0  0  0  0  0  0
    1.0440   39.1310   22.5170 C   0  0  0  0  0  0  0  0  0  0  0  0
  6  7  2  0
  6  5  1  0
 18 17  2  0
  7  8  1  0
 14 15  1  0
  5  4  2  0
  8  9  2  0
 27 26  1  0
  4  9  1  0
  4  3  1  0
 17 15  1  0
 17 13  1  0
  9  1  1  0
 15 16  1  0
 19  3  1  0
 19 20  1  0
  3  2  1  0
 28 26  1  0
 28 29  2  0
 26 25  2  0
  1  2  2  0
  1 13  1  0
  2 10  1  0
 12 10  2  0
 20 29  1  0
 20 21  2  0
 29 23  1  0
 10 11  1  0
 25 24  1  0
 21 22  1  0
 23 24  2  0
 23 22  1  0
M  RAD  8   5   2   6   2   7   2   8   2  13   3  14   2  16   2  19   3
M  CHG  2   3   1  11  -1
M  RAD  4  21   2  24   2  25   2  28   2
M  END
>  <_TriposChargeType>  (1) 
GASTEIGER

>  <SuCOS_score>  (1) 
0.3024777380999019

>  <Volume_score>  (1) 
0.431463657484235

>  <Feature_score>  (1) 
0.17349181871556887

$$$$
