DOCK.F36.P4k60/L1008_ligand.pdbt
     RDKit          3D

 32 36  0  0  0  0  0  0  0  0999 V2000
   -1.6590   37.7670   23.4350 C   0  0  0  0  0  3  0  0  0  0  0  0
    5.6420   39.4000   24.2010 C   0  0  0  0  0  1  0  0  0  0  0  0
    4.3370   39.3290   23.4750 C   0  0  0  0  0  0  0  0  0  0  0  0
    4.2760   39.7990   22.1820 C   0  0  0  0  0  3  0  0  0  0  0  0
    3.0550   39.7200   21.5380 C   0  0  0  0  0  3  0  0  0  0  0  0
    1.9440   39.1860   22.1840 C   0  0  0  0  0  0  0  0  0  0  0  0
    0.3210   38.9320   21.7250 S   0  0  0  0  0  0  0  0  0  0  0  0
   -0.2750   38.2370   23.1600 C   0  0  0  0  0  0  0  0  0  0  0  0
    0.8310   38.2220   23.9720 C   0  0  0  0  0  0  0  0  0  0  0  0
    0.6870   37.6550   25.3840 C   0  0  0  0  0  1  0  0  0  0  0  0
    1.9770   38.7120   23.4680 C   0  0  0  0  0  0  0  0  0  0  0  0
    3.2340   38.8090   24.0890 C   0  0  0  0  0  3  0  0  0  0  0  0
   -2.7000   38.7420   23.0120 C   0  0  0  0  0  0  0  0  0  0  0  0
   -3.7340   39.3420   23.5100 C   0  0  0  0  0  0  0  0  0  0  0  0
   -4.3460   39.3070   24.7750 O   0  0  0  0  0  0  0  0  0  0  0  0
   -4.0430   40.0680   22.3000 C   0  0  1  0  0  0  0  0  0  0  0  0
   -3.8060   41.5660   22.3360 C   0  0  0  0  0  1  0  0  0  0  0  0
   -2.8880   39.3940   21.7440 C   0  0  0  0  0  0  0  0  0  0  0  0
   -2.3060   39.4000   20.6000 O   0  0  0  0  0  0  0  0  0  0  0  0
   -4.0990   40.0520   25.4130 H   0  0  0  0  0  0  0  0  0  0  0  0
   -5.2900   39.6760   21.6010 C   0  0  0  0  0  0  0  0  0  0  0  0
   -5.9020   38.4630   21.8030 C   0  0  0  0  0  3  0  0  0  0  0  0
   -7.0670   38.1040   21.1440 C   0  0  0  0  0  3  0  0  0  0  0  0
   -7.6340   38.9780   20.2610 C   0  0  0  0  0  3  0  0  0  0  0  0
   -7.0300   40.1980   20.0490 C   0  0  0  0  0  3  0  0  0  0  0  0
   -5.8620   40.5550   20.7110 C   0  0  0  0  0  3  0  0  0  0  0  0
   -1.8690   36.5240   22.6450 C   0  0  0  0  0  0  0  0  0  0  0  0
   -2.9230   36.3850   21.7680 C   0  0  0  0  0  3  0  0  0  0  0  0
   -3.0670   35.2260   21.0750 C   0  0  0  0  0  3  0  0  0  0  0  0
   -2.1940   34.1970   21.2240 C   0  0  0  0  0  3  0  0  0  0  0  0
   -1.1270   34.3450   22.1130 C   0  0  0  0  0  3  0  0  0  0  0  0
   -0.9520   35.5040   22.8320 C   0  0  0  0  0  3  0  0  0  0  0  0
 25 24  2  0
 25 26  1  0
 24 23  1  0
 19 18  2  0
 26 21  2  0
 29 30  1  0
 29 28  2  0
 23 22  2  0
 30 31  2  0
  5  4  1  0
  5  6  2  0
 21 22  1  0
 21 16  1  0
  7  6  1  0
  7  8  1  0
 18 16  1  0
 18 13  1  0
 28 27  1  0
 31 32  1  0
  4  3  2  0
  6 11  1  0
 16 17  1  1
 16 14  1  0
 27 32  2  0
 27  1  1  0
 13  1  1  0
 13 14  2  0
  8  1  1  0
  8  9  2  0
 11  9  1  0
 11 12  2  0
  3 12  1  0
  3  2  1  0
 14 15  1  0
  9 10  1  0
 15 20  1  0
M  RAD  8   1   2   2   2   4   2   5   2  10   2  12   2  17   2  22   2
M  RAD  8  23   2  24   2  25   2  26   2  28   2  29   2  30   2  31   2
M  RAD  1  32   2
M  END
>  <_TriposChargeType>  (1) 
GASTEIGER

>  <SuCOS_score>  (1) 
0.3061408204457804

>  <Volume_score>  (1) 
0.448569218870843

>  <Feature_score>  (1) 
0.16371242202071784

$$$$
