DOCK.F36.P4k60/L1009_ligand.pdbt
     RDKit          3D

 34 38  0  0  0  0  0  0  0  0999 V2000
   -1.9570   38.2270   22.8160 C   0  0  0  0  0  3  0  0  0  0  0  0
    0.7030   37.7830   24.5430 C   0  0  0  0  0  1  0  0  0  0  0  0
    0.5640   38.5020   23.2400 C   0  0  0  0  0  0  0  0  0  0  0  0
   -0.5780   38.7000   22.4960 C   0  0  0  0  0  0  0  0  0  0  0  0
   -0.1760   39.4040   21.4240 N   0  0  0  0  0  0  0  0  0  0  0  0
    1.1330   39.6540   21.4550 C   0  0  0  0  0  0  0  0  0  0  0  0
    2.0160   40.3280   20.6050 C   0  0  0  0  0  3  0  0  0  0  0  0
    3.3480   40.3960   20.9570 C   0  0  0  0  0  3  0  0  0  0  0  0
    3.8520   39.8320   22.1050 C   0  0  0  0  0  0  0  0  0  0  0  0
    5.1830   39.9360   22.3990 F   0  0  0  0  0  0  0  0  0  0  0  0
    2.9810   39.1710   22.9390 C   0  0  0  0  0  3  0  0  0  0  0  0
    1.6360   39.0890   22.6060 C   0  0  0  0  0  0  0  0  0  0  0  0
   -0.7850   39.7420   20.6270 H   0  0  0  0  0  0  0  0  0  0  0  0
   -2.8870   39.3310   23.1340 C   0  0  0  0  0  0  0  0  0  0  0  0
   -3.0760   40.4880   22.5430 C   0  0  0  0  0  0  0  0  0  0  0  0
   -2.4010   40.9820   21.4000 O   0  0  0  0  0  0  0  0  0  0  0  0
   -4.1270   41.2610   23.2360 C   0  0  0  0  0  3  0  0  0  0  0  0
   -4.5740   40.4520   24.2800 O   0  0  0  0  0  0  0  0  0  0  0  0
   -3.8450   39.2830   24.2620 C   0  0  0  0  0  0  0  0  0  0  0  0
   -4.0010   38.3510   25.0910 O   0  0  0  0  0  0  0  0  0  0  0  0
   -1.9370   41.8820   21.5430 H   0  0  0  0  0  0  0  0  0  0  0  0
   -5.3200   41.5290   22.3370 C   0  0  0  0  0  2  0  0  0  0  0  0
   -6.0000   42.7730   22.7810 C   0  0  0  0  0  0  0  0  0  0  0  0
   -5.4020   44.0000   22.6000 C   0  0  0  0  0  3  0  0  0  0  0  0
   -6.0070   45.1810   23.0050 C   0  0  0  0  0  3  0  0  0  0  0  0
   -7.2590   45.1370   23.6160 C   0  0  0  0  0  3  0  0  0  0  0  0
   -7.8430   43.9080   23.7900 C   0  0  0  0  0  3  0  0  0  0  0  0
   -7.2400   42.7360   23.3860 C   0  0  0  0  0  3  0  0  0  0  0  0
   -2.4740   37.3160   21.7810 C   0  0  0  0  0  0  0  0  0  0  0  0
   -3.8390   37.0770   21.6160 C   0  0  0  0  0  3  0  0  0  0  0  0
   -4.2560   36.2100   20.6320 C   0  0  0  0  0  3  0  0  0  0  0  0
   -3.3640   35.5680   19.8000 C   0  0  0  0  0  3  0  0  0  0  0  0
   -1.9990   35.8010   19.9570 C   0  0  0  0  0  3  0  0  0  0  0  0
   -1.6050   36.6610   20.9350 C   0  0  0  0  0  3  0  0  0  0  0  0
 32 33  2  0
 32 31  1  0
 33 34  1  0
  7  8  2  0
  7  6  1  0
 13  5  1  0
 31 30  2  0
 34 29  2  0
  8  9  1  0
 16 21  1  0
 16 15  1  0
  5  6  1  0
  5  4  1  0
  6 12  2  0
 30 29  1  0
 29  1  1  0
  9 10  1  0
  9 11  2  0
 22 23  1  0
 22 17  1  0
  4  1  1  0
  4  3  2  0
 15 14  2  0
 15 17  1  0
 24 23  2  0
 24 25  1  0
 12 11  1  0
 12  3  1  0
 23 28  1  0
  1 14  1  0
 25 26  2  0
 14 19  1  0
 17 18  1  0
  3  2  1  0
 28 27  2  0
 26 27  1  0
 19 18  1  0
 19 20  2  0
M  RAD  8   1   2   2   2   7   2   8   2  11   2  17   2  22   3  24   2
M  RAD  8  25   2  26   2  27   2  28   2  30   2  31   2  32   2  33   2
M  RAD  1  34   2
M  END
>  <_TriposChargeType>  (1) 
GASTEIGER

>  <SuCOS_score>  (1) 
0.3323953343177637

>  <Volume_score>  (1) 
0.4960777814606121

>  <Feature_score>  (1) 
0.16871288717491528

$$$$
