DOCK.F36.P4k60/L1006_ligand.pdbt
     RDKit          3D

 42 46  0  0  0  0  0  0  0  0999 V2000
   -1.9800   38.7960   21.0060 C   0  0  0  0  0  3  0  0  0  0  0  0
    0.1010   39.0850   22.5500 C   0  0  0  0  0  0  0  0  0  0  0  0
   -0.6170   39.1390   21.3470 C   0  0  0  0  0  0  0  0  0  0  0  0
    0.3140   39.4630   20.4000 N   0  0  0  0  0  0  0  0  0  0  0  0
    1.5210   39.6000   20.9180 C   0  0  0  0  0  0  0  0  0  0  0  0
    2.7360   39.9050   20.2930 C   0  0  0  0  0  3  0  0  0  0  0  0
    3.8860   39.9780   21.0270 C   0  0  0  0  0  0  0  0  0  0  0  0
    5.2000   40.3040   20.3790 C   0  0  0  0  0  1  0  0  0  0  0  0
    3.7860   39.7420   22.3740 C   0  0  0  0  0  3  0  0  0  0  0  0
    2.5910   39.4430   22.9890 C   0  0  0  0  0  3  0  0  0  0  0  0
    1.4200   39.3660   22.2680 C   0  0  0  0  0  0  0  0  0  0  0  0
    0.1160   39.5950   19.3630 H   0  0  0  0  0  0  0  0  0  0  0  0
   -0.4990   38.8870   23.8440 C   0  0  0  0  0  2  0  0  0  0  0  0
   -0.0980   37.7020   24.6800 C   0  0  1  0  0  0  0  0  0  0  0  0
    0.6070   36.6440   23.7990 C   0  0  0  0  0  1  0  0  0  0  0  0
    0.8010   38.0000   25.8270 C   0  0  0  0  0  1  0  0  0  0  0  0
   -2.1580   34.8360   26.2530 C   0  0  0  0  0  1  0  0  0  0  0  0
   -1.0340   35.6560   25.6900 C   0  0  0  0  0  0  0  0  0  0  0  0
    0.1230   35.1680   25.6360 O   0  0  0  0  0  0  0  0  0  0  0  0
   -1.2870   36.9910   25.2160 N   0  0  0  0  0  0  0  0  0  0  0  0
   -2.2240   37.4050   25.2540 H   0  0  0  0  0  0  0  0  0  0  0  0
   -2.1910   37.3070   21.1620 C   0  0  0  0  0  0  0  0  0  0  0  0
   -1.9680   36.2380   20.4670 C   0  0  0  0  0  0  0  0  0  0  0  0
   -1.4000   36.0220   19.2000 O   0  0  0  0  0  0  0  0  0  0  0  0
   -2.5170   35.3110   21.4610 C   0  0  1  0  0  0  0  0  0  0  0  0
   -1.5480   34.3800   22.1240 C   0  0  0  0  0  1  0  0  0  0  0  0
   -2.7660   36.5250   22.2370 C   0  0  0  0  0  0  0  0  0  0  0  0
   -3.2670   36.7880   23.3630 O   0  0  0  0  0  0  0  0  0  0  0  0
   -0.4460   35.6660   19.1980 H   0  0  0  0  0  0  0  0  0  0  0  0
   -3.7330   34.6460   20.8970 C   0  0  0  0  0  0  0  0  0  0  0  0
   -3.8940   33.2710   20.9150 C   0  0  0  0  0  3  0  0  0  0  0  0
   -5.0300   32.6750   20.3870 C   0  0  0  0  0  3  0  0  0  0  0  0
   -6.0310   33.4400   19.8300 C   0  0  0  0  0  0  0  0  0  0  0  0
   -7.2670   32.8000   19.2550 C   0  0  0  0  0  1  0  0  0  0  0  0
   -5.9010   34.7940   19.7980 C   0  0  0  0  0  3  0  0  0  0  0  0
   -4.7630   35.3660   20.3280 C   0  0  0  0  0  3  0  0  0  0  0  0
   -3.1140   39.5260   21.5320 C   0  0  0  0  0  0  0  0  0  0  0  0
   -2.9140   40.6890   22.2160 C   0  0  0  0  0  3  0  0  0  0  0  0
   -3.9600   41.4130   22.7470 C   0  0  0  0  0  3  0  0  0  0  0  0
   -5.2730   40.9870   22.6090 C   0  0  0  0  0  3  0  0  0  0  0  0
   -5.4970   39.8210   21.9260 C   0  0  0  0  0  3  0  0  0  0  0  0
   -4.4450   39.1090   21.4000 C   0  0  0  0  0  3  0  0  0  0  0  0
 29 24  1  0
 24 23  1  0
 34 33  1  0
 12  4  1  0
 35 33  2  0
 35 36  1  0
 33 32  1  0
  6  5  1  0
  6  7  2  0
 36 30  2  0
  8  7  1  0
 32 31  2  0
  4  5  1  0
  4  3  1  0
 23 22  2  0
 23 25  1  0
 30 31  1  0
 30 25  1  0
  5 11  2  0
  1 22  1  0
  1  3  1  0
  1 37  1  0
  7  9  1  0
 22 27  1  0
  3  2  2  0
 42 37  1  0
 42 41  2  0
 25 26  1  1
 25 27  1  0
 37 38  2  0
 41 40  1  0
 38 39  1  0
 27 28  2  0
 11  2  1  0
 11 10  1  0
  9 10  2  0
  2 13  1  0
 40 39  2  0
 14 15  1  6
 13 14  1  0
 14 20  1  0
 14 16  1  0
 20 21  1  0
 20 18  1  0
 19 18  2  0
 18 17  1  0
M  RAD  8   1   2   6   2   8   2   9   2  10   2  13   3  15   2  16   2
M  RAD  8  17   2  26   2  31   2  32   2  34   2  35   2  36   2  38   2
M  RAD  4  39   2  40   2  41   2  42   2
M  END
>  <_TriposChargeType>  (1) 
GASTEIGER

>  <SuCOS_score>  (1) 
0.2957272059254788

>  <Volume_score>  (1) 
0.48310139165009935

>  <Feature_score>  (1) 
0.10835302020085825

$$$$
