DOCK.F36.P4k60/L1013_ligand.pdbt
     RDKit          3D

 27 30  0  0  0  0  0  0  0  0999 V2000
   -4.4360   39.1670   21.7510 N   0  0  0  0  0  4  0  0  0  0  0  0
   -3.4750   40.1020   22.0030 C   0  0  0  0  0  0  0  0  0  0  0  0
   -2.2170   39.5810   21.8000 C   0  0  0  0  0  0  0  0  0  0  0  0
   -2.4700   38.2490   21.3980 C   0  0  0  0  0  0  0  0  0  0  0  0
   -1.6290   37.2230   21.0270 C   0  0  0  0  0  3  0  0  0  0  0  0
   -2.1310   35.9950   20.6440 C   0  0  0  0  0  3  0  0  0  0  0  0
   -3.4870   35.7890   20.6320 C   0  0  0  0  0  3  0  0  0  0  0  0
   -4.3410   36.7980   20.9970 C   0  0  0  0  0  3  0  0  0  0  0  0
   -3.8090   38.0440   21.3820 C   0  0  0  0  0  0  0  0  0  0  0  0
   -3.8350   41.4640   22.4020 C   0  0  0  0  0  0  0  0  0  0  0  0
   -3.6000   42.4000   21.5560 O   0  0  0  0  0  1  0  0  0  0  0  0
   -4.4000   41.8200   23.6060 O   0  0  0  0  0  0  0  0  0  0  0  0
   -5.8860   39.2830   21.8470 C   0  0  0  0  0  2  0  0  0  0  0  0
   -6.4930   39.6450   20.5140 C   0  0  0  0  0  2  0  0  0  0  0  0
   -6.9990   41.9090   20.4630 C   0  0  0  0  0  1  0  0  0  0  0  0
   -6.1580   40.8860   20.0430 O   0  0  0  0  0  0  0  0  0  0  0  0
   -0.8870   40.2000   21.8690 C   0  0  0  0  0  2  0  0  0  0  0  0
    0.1870   39.6630   22.6350 C   0  0  0  0  0  0  0  0  0  0  0  0
   -0.0530   39.0260   23.8710 C   0  0  0  0  0  3  0  0  0  0  0  0
    0.9160   38.5430   24.6890 C   0  0  0  0  0  3  0  0  0  0  0  0
    2.2290   38.6580   24.3390 C   0  0  0  0  0  3  0  0  0  0  0  0
    2.5380   39.2670   23.1510 C   0  0  0  0  0  0  0  0  0  0  0  0
    3.8720   39.4000   22.7850 C   0  0  0  0  0  3  0  0  0  0  0  0
    4.2460   40.0130   21.6020 C   0  0  0  0  0  3  0  0  0  0  0  0
    3.2590   40.4900   20.8000 C   0  0  0  0  0  3  0  0  0  0  0  0
    1.9490   40.3520   21.1740 C   0  0  0  0  0  3  0  0  0  0  0  0
    1.5190   39.7550   22.3290 C   0  0  0  0  0  0  0  0  0  0  0  0
 16 15  1  0
 16 14  1  0
 14 13  1  0
  7  6  2  0
  7  8  1  0
  6  5  1  0
 25 26  1  0
 25 24  2  0
  8  9  2  0
  5  4  2  0
 26 27  2  0
  9  4  1  0
  9  1  1  0
  4  3  1  0
 11 10  1  0
 24 23  1  0
  1 13  1  0
  1  2  1  0
  3 17  1  0
  3  2  2  0
 17 18  1  0
  2 10  1  0
 27 18  1  0
 27 22  1  0
 10 12  2  0
 18 19  2  0
 23 22  2  0
 22 21  1  0
 19 20  1  0
 21 20  2  0
M  RAD  8   5   2   6   2   7   2   8   2  13   3  14   3  15   2  17   3
M  CHG  2   1   1  11  -1
M  RAD  7  19   2  20   2  21   2  23   2  24   2  25   2  26   2
M  END
>  <_TriposChargeType>  (1) 
GASTEIGER

>  <SuCOS_score>  (1) 
0.3900420310667977

>  <Volume_score>  (1) 
0.5193901226383826

>  <Feature_score>  (1) 
0.2606939394952128

$$$$
