DOCK.F36.P4k60/L1017_ligand.pdbt
     RDKit          3D

 31 34  0  0  0  0  0  0  0  0999 V2000
   -2.3460   38.1060   21.3790 C   0  0  0  0  0  0  0  0  0  0  0  0
   -3.4620   38.5160   22.0690 C   0  0  0  0  0  0  0  0  0  0  0  0
   -4.5020   37.7200   21.8500 N   0  0  0  0  0  4  0  0  0  0  0  0
   -4.1050   36.7660   21.0070 C   0  0  0  0  0  0  0  0  0  0  0  0
   -4.7200   35.6730   20.4020 C   0  0  0  0  0  3  0  0  0  0  0  0
   -4.1170   34.8030   19.5430 C   0  0  0  0  0  3  0  0  0  0  0  0
   -2.7680   35.0170   19.2290 C   0  0  0  0  0  0  0  0  0  0  0  0
   -2.1450   34.2000   18.3710 F   0  0  0  0  0  0  0  0  0  0  0  0
   -2.1190   36.0880   19.8150 C   0  0  0  0  0  3  0  0  0  0  0  0
   -2.7440   36.9570   20.6830 C   0  0  0  0  0  0  0  0  0  0  0  0
   -3.4000   39.7010   22.9910 C   0  0  0  0  0  0  0  0  0  0  0  0
   -3.5560   39.5020   24.2130 O   0  0  0  0  0  1  0  0  0  0  0  0
   -3.2010   40.9940   22.5840 O   0  0  0  0  0  0  0  0  0  0  0  0
   -1.1300   38.8450   21.0830 C   0  0  0  0  0  2  0  0  0  0  0  0
    0.1270   38.1940   21.0000 N   0  0  0  0  0  0  0  0  0  0  0  0
    0.5550   37.9040   20.1480 H   0  0  0  0  0  0  0  0  0  0  0  0
    1.9190   40.4240   20.9260 C   0  0  0  0  0  1  0  0  0  0  0  0
    1.2030   39.1850   21.9650 S   0  0  2  0  0  6  0  0  0  0  0  0
    2.2000   38.3990   22.6800 O   0  0  0  0  0  0  0  0  0  0  0  0
    0.3210   39.9310   23.0000 O   0  0  0  0  0  0  0  0  0  0  0  0
   -5.7750   37.7750   22.5210 C   0  0  0  0  0  2  0  0  0  0  0  0
   -6.9110   37.9340   21.6100 C   0  0  0  0  0  0  0  0  0  0  0  0
   -7.7810   36.9480   21.3090 C   0  0  0  0  0  3  0  0  0  0  0  0
   -8.8140   37.1290   20.4260 C   0  0  0  0  0  3  0  0  0  0  0  0
   -8.9990   38.3500   19.8030 C   0  0  0  0  0  3  0  0  0  0  0  0
   -8.0900   39.3780   20.1150 C   0  0  0  0  0  0  0  0  0  0  0  0
   -8.2640   40.6030   19.5090 C   0  0  0  0  0  3  0  0  0  0  0  0
   -7.3980   41.6280   19.8000 C   0  0  0  0  0  3  0  0  0  0  0  0
   -6.3640   41.4670   20.6820 C   0  0  0  0  0  3  0  0  0  0  0  0
   -6.2260   40.2530   21.2650 C   0  0  0  0  0  3  0  0  0  0  0  0
   -7.0830   39.1550   20.9980 C   0  0  0  0  0  0  0  0  0  0  0  0
  8  7  1  0
  7  6  2  0
  7  9  1  0
 27 28  2  0
 27 26  1  0
  6  5  1  0
 28 29  1  0
 25 26  2  0
 25 24  1  0
  9 10  2  0
 26 31  1  0
 16 15  1  0
  5  4  2  0
 24 23  2  0
 29 30  2  0
 10  4  1  0
 10  1  1  0
 18 17  1  6
 31 30  1  0
 31 22  2  0
 15 14  1  0
 15 18  1  0
  4  3  1  0
 14  1  1  0
 23 22  1  0
  1  2  2  0
 22 21  1  0
  3  2  1  0
  3 21  1  0
 18 19  2  0
 18 20  2  0
  2 11  1  0
 13 11  2  0
 11 12  1  0
M  RAD  8   5   2   6   2   9   2  14   3  17   2  21   3  23   2  24   2
M  CHG  2   3   1  12  -1
M  RAD  5  25   2  27   2  28   2  29   2  30   2
M  END
>  <_TriposChargeType>  (1) 
GASTEIGER

>  <SuCOS_score>  (1) 
0.24427694895493138

>  <Volume_score>  (1) 
0.4493426140757927

>  <Feature_score>  (1) 
0.03921128383407006

$$$$
