DOCK.F36.P4k60/L1011_ligand.pdbt
     RDKit          3D

 30 33  0  0  0  0  0  0  0  0999 V2000
   -4.4860   39.0820   21.6260 C   0  0  0  0  0  0  0  0  0  0  0  0
   -3.3660   39.9050   21.6610 C   0  0  0  0  0  0  0  0  0  0  0  0
   -2.2850   39.1560   21.2790 N   0  0  0  0  0  4  0  0  0  0  0  0
   -2.6790   37.8990   21.0020 C   0  0  0  0  0  0  0  0  0  0  0  0
   -2.0240   36.7570   20.5740 C   0  0  0  0  0  3  0  0  0  0  0  0
   -2.6780   35.5620   20.3510 C   0  0  0  0  0  3  0  0  0  0  0  0
   -4.0410   35.5380   20.5760 C   0  0  0  0  0  0  0  0  0  0  0  0
   -4.6930   34.3680   20.3660 F   0  0  0  0  0  0  0  0  0  0  0  0
   -4.7040   36.6590   21.0000 C   0  0  0  0  0  3  0  0  0  0  0  0
   -4.0320   37.8440   21.2150 C   0  0  0  0  0  0  0  0  0  0  0  0
   -3.4470   41.3140   21.9970 C   0  0  0  0  0  0  0  0  0  0  0  0
   -3.0000   42.2000   21.2000 O   0  0  0  0  0  1  0  0  0  0  0  0
   -4.0000   41.7820   23.1780 O   0  0  0  0  0  0  0  0  0  0  0  0
   -5.8970   39.4300   21.9250 C   0  0  0  0  0  2  0  0  0  0  0  0
   -7.7960   41.1850   19.0600 C   0  0  0  0  0  1  0  0  0  0  0  0
   -7.0240   41.0410   20.2900 N   0  0  0  0  0  0  0  0  0  0  0  0
   -6.6860   42.2410   20.9910 C   0  0  0  0  0  1  0  0  0  0  0  0
   -6.6560   39.7490   20.7070 C   0  0  0  0  0  0  0  0  0  0  0  0
   -6.9990   38.7520   19.9860 O   0  0  0  0  0  0  0  0  0  0  0  0
   -0.9410   39.6880   21.2610 C   0  0  0  0  0  2  0  0  0  0  0  0
   -0.2390   39.3120   22.5150 C   0  0  0  0  0  0  0  0  0  0  0  0
   -0.9620   38.7610   23.5690 C   0  0  0  0  0  3  0  0  0  0  0  0
   -0.3200   38.2880   24.7040 C   0  0  0  0  0  3  0  0  0  0  0  0
    1.0460   38.3660   24.7840 C   0  0  0  0  0  3  0  0  0  0  0  0
    1.8110   38.9010   23.7780 C   0  0  0  0  0  0  0  0  0  0  0  0
    3.1990   39.0000   23.9330 C   0  0  0  0  0  3  0  0  0  0  0  0
    3.9150   39.5920   22.9150 C   0  0  0  0  0  3  0  0  0  0  0  0
    3.3290   40.0760   21.7810 C   0  0  0  0  0  3  0  0  0  0  0  0
    1.9300   39.9500   21.6740 C   0  0  0  0  0  3  0  0  0  0  0  0
    1.1540   39.3710   22.6480 C   0  0  0  0  0  0  0  0  0  0  0  0
 15 16  1  0
 19 18  2  0
 16 18  1  0
 16 17  1  0
  6  5  1  0
  6  7  2  0
  8  7  1  0
  5  4  2  0
  7  9  1  0
 18 14  1  0
  9 10  2  0
  4 10  1  0
  4  3  1  0
 12 11  1  0
 10  1  1  0
 20  3  1  0
 20 21  1  0
  3  2  1  0
  1  2  2  0
  1 14  1  0
  2 11  1  0
 29 28  1  0
 29 30  2  0
 28 27  2  0
 11 13  2  0
 21 30  1  0
 21 22  2  0
 30 25  1  0
 27 26  1  0
 22 23  1  0
 25 26  2  0
 25 24  1  0
 23 24  2  0
M  RAD  8   5   2   6   2   9   2  14   3  15   2  17   2  20   3  22   2
M  CHG  2   3   1  12  -1
M  RAD  6  23   2  24   2  26   2  27   2  28   2  29   2
M  END
>  <_TriposChargeType>  (1) 
GASTEIGER

>  <SuCOS_score>  (1) 
0.3585954250192731

>  <Volume_score>  (1) 
0.5239200088388023

>  <Feature_score>  (1) 
0.19327084119974386

$$$$
