DOCK.F36.P4k2y/L1006_ligand.pdbt
     RDKit          3D

 42 46  0  0  0  0  0  0  0  0999 V2000
   -5.9110   41.6510   22.3310 C   0  0  0  0  0  3  0  0  0  0  0  0
   -6.4770   42.3890   24.7670 C   0  0  0  0  0  0  0  0  0  0  0  0
   -6.3720   41.4940   23.6930 C   0  0  0  0  0  0  0  0  0  0  0  0
   -6.9790   40.3500   24.1320 N   0  0  0  0  0  0  0  0  0  0  0  0
   -7.4440   40.4770   25.3610 C   0  0  0  0  0  0  0  0  0  0  0  0
   -8.1380   39.5570   26.1560 C   0  0  0  0  0  3  0  0  0  0  0  0
   -8.5520   39.9080   27.4110 C   0  0  0  0  0  0  0  0  0  0  0  0
   -9.2960   38.9390   28.2810 C   0  0  0  0  0  1  0  0  0  0  0  0
   -8.2570   41.1780   27.8340 C   0  0  0  0  0  3  0  0  0  0  0  0
   -7.5740   42.0830   27.0530 C   0  0  0  0  0  3  0  0  0  0  0  0
   -7.1470   41.7490   25.7860 C   0  0  0  0  0  0  0  0  0  0  0  0
   -7.0770   39.4520   23.5700 H   0  0  0  0  0  0  0  0  0  0  0  0
   -5.8710   43.6950   24.7970 C   0  0  0  0  0  2  0  0  0  0  0  0
   -6.5560   44.8520   24.1220 C   0  0  1  0  0  0  0  0  0  0  0  0
   -5.8280   45.2040   22.8030 C   0  0  0  0  0  1  0  0  0  0  0  0
   -7.9930   44.6480   23.8000 C   0  0  0  0  0  1  0  0  0  0  0  0
   -4.9370   48.0000   25.6710 C   0  0  0  0  0  1  0  0  0  0  0  0
   -5.1660   46.7390   24.8890 C   0  0  0  0  0  0  0  0  0  0  0  0
   -4.2330   46.2590   24.1990 O   0  0  0  0  0  0  0  0  0  0  0  0
   -6.4500   46.0910   24.9340 N   0  0  0  0  0  0  0  0  0  0  0  0
   -7.2240   46.4700   25.4900 H   0  0  0  0  0  0  0  0  0  0  0  0
   -4.6250   40.8830   22.1300 C   0  0  0  0  0  0  0  0  0  0  0  0
   -3.8110   40.6320   21.1550 C   0  0  0  0  0  0  0  0  0  0  0  0
   -3.8000   41.0000   19.8000 O   0  0  0  0  0  0  0  0  0  0  0  0
   -2.8880   39.8190   21.9540 C   0  0  1  0  0  0  0  0  0  0  0  0
   -1.5180   40.3810   22.1830 C   0  0  0  0  0  1  0  0  0  0  0  0
   -3.8150   40.1070   23.0470 C   0  0  0  0  0  0  0  0  0  0  0  0
   -3.8860   39.8120   24.2700 O   0  0  0  0  0  0  0  0  0  0  0  0
   -3.1440   41.7370   19.5470 H   0  0  0  0  0  0  0  0  0  0  0  0
   -2.9070   38.4110   21.4480 C   0  0  0  0  0  0  0  0  0  0  0  0
   -1.7610   37.7760   20.9990 C   0  0  0  0  0  3  0  0  0  0  0  0
   -1.8000   36.4690   20.5350 C   0  0  0  0  0  3  0  0  0  0  0  0
   -2.9860   35.7680   20.5090 C   0  0  0  0  0  0  0  0  0  0  0  0
   -3.0370   34.3490   20.0060 C   0  0  0  0  0  1  0  0  0  0  0  0
   -4.1290   36.3650   20.9430 C   0  0  0  0  0  3  0  0  0  0  0  0
   -4.0670   37.6660   21.4010 C   0  0  0  0  0  3  0  0  0  0  0  0
   -6.7900   41.4720   21.1940 C   0  0  0  0  0  0  0  0  0  0  0  0
   -7.2570   40.2280   20.8870 C   0  0  0  0  0  3  0  0  0  0  0  0
   -8.0850   40.0060   19.8070 C   0  0  0  0  0  3  0  0  0  0  0  0
   -8.4820   41.0440   18.9780 C   0  0  0  0  0  3  0  0  0  0  0  0
   -8.0240   42.3020   19.2680 C   0  0  0  0  0  3  0  0  0  0  0  0
   -7.1990   42.5120   20.3490 C   0  0  0  0  0  3  0  0  0  0  0  0
 40 41  2  0
 40 39  1  0
 41 42  1  0
 29 24  1  0
 24 23  1  0
 39 38  2  0
 34 33  1  0
 42 37  2  0
 33 32  1  0
 33 35  2  0
 32 31  2  0
 38 37  1  0
 35 36  1  0
 31 30  1  0
 23 25  1  0
 23 22  2  0
 37  1  1  0
 36 30  2  0
 30 25  1  0
 25 26  1  1
 25 27  1  0
 22  1  1  0
 22 27  1  0
  1  3  1  0
 14 15  1  6
 27 28  2  0
 12  4  1  0
  3  4  1  0
  3  2  2  0
 16 14  1  0
 14 13  1  0
 14 20  1  0
  4  5  1  0
 19 18  2  0
  2 13  1  0
  2 11  1  0
 18 20  1  0
 18 17  1  0
 20 21  1  0
  5 11  2  0
  5  6  1  0
 11 10  1  0
  6  7  2  0
 10  9  2  0
  7  9  1  0
  7  8  1  0
M  RAD  8   1   2   6   2   8   2   9   2  10   2  13   3  15   2  16   2
M  RAD  8  17   2  26   2  31   2  32   2  34   2  35   2  36   2  38   2
M  RAD  4  39   2  40   2  41   2  42   2
M  END
>  <_TriposChargeType>  (1) 
GASTEIGER

>  <SuCOS_score>  (1) 
0.3205166289665432

>  <Volume_score>  (1) 
0.47869980031062787

>  <Feature_score>  (1) 
0.1623334576224585

$$$$
