DOCK.F36.P4k2y/L1004_ligand.pdbt
     RDKit          3D

 33 36  0  0  0  0  0  0  0  0999 V2000
   -2.6060   38.7560   22.3910 C   0  0  0  0  0  3  0  0  0  0  0  0
   -0.0690   38.6330   22.8290 C   0  0  0  0  0  0  0  0  0  0  0  0
   -1.2120   39.0950   22.1900 C   0  0  0  0  0  0  0  0  0  0  0  0
   -0.8000   39.9550   21.2150 N   0  0  0  0  0  0  0  0  0  0  0  0
    0.5330   40.0710   21.1890 C   0  0  0  0  0  0  0  0  0  0  0  0
    1.4030   40.8040   20.4040 C   0  0  0  0  0  3  0  0  0  0  0  0
    2.7680   40.7430   20.5960 C   0  0  0  0  0  3  0  0  0  0  0  0
    3.2520   39.9280   21.5960 C   0  0  0  0  0  0  0  0  0  0  0  0
    4.5900   39.8470   21.8000 F   0  0  0  0  0  0  0  0  0  0  0  0
    2.3590   39.1970   22.3760 C   0  0  0  0  0  3  0  0  0  0  0  0
    0.9950   39.2340   22.2110 C   0  0  0  0  0  0  0  0  0  0  0  0
   -1.4160   40.4940   20.5330 H   0  0  0  0  0  0  0  0  0  0  0  0
   -0.0000   36.2590   23.6750 C   0  0  0  0  0  1  0  0  0  0  0  0
   -0.1020   37.7340   23.9640 C   0  0  0  0  0  3  0  0  0  0  0  0
    1.1270   38.0190   24.8780 C   0  0  0  0  0  1  0  0  0  0  0  0
   -3.5140   39.9710   22.4560 C   0  0  0  0  0  0  0  0  0  0  0  0
   -3.8180   40.8300   21.5040 C   0  0  0  0  0  0  0  0  0  0  0  0
   -3.3010   40.7270   20.2000 O   0  0  0  0  0  0  0  0  0  0  0  0
   -4.7470   41.8820   21.9780 C   0  0  0  0  0  3  0  0  0  0  0  0
   -4.9560   41.5870   23.3560 N   0  0  0  0  0  0  0  0  0  0  0  0
   -4.2180   40.4180   23.6540 C   0  0  0  0  0  0  0  0  0  0  0  0
   -4.1350   39.8000   24.7690 O   0  0  0  0  0  0  0  0  0  0  0  0
   -3.9380   40.6760   19.4090 H   0  0  0  0  0  0  0  0  0  0  0  0
   -5.5460   42.1430   24.0080 H   0  0  0  0  0  0  0  0  0  0  0  0
   -6.0280   41.9180   21.1790 C   0  0  0  0  0  3  0  0  0  0  0  0
   -6.7740   40.6020   21.2950 C   0  0  0  0  0  1  0  0  0  0  0  0
   -6.9070   43.0020   21.7430 C   0  0  0  0  0  1  0  0  0  0  0  0
   -3.1850   37.6790   21.5900 C   0  0  0  0  0  0  0  0  0  0  0  0
   -2.4420   36.8530   20.7660 C   0  0  0  0  0  3  0  0  0  0  0  0
   -3.0210   35.8300   20.0410 C   0  0  0  0  0  3  0  0  0  0  0  0
   -4.3750   35.5850   20.1070 C   0  0  0  0  0  3  0  0  0  0  0  0
   -5.1230   36.4000   20.9230 C   0  0  0  0  0  3  0  0  0  0  0  0
   -4.5360   37.4110   21.6370 C   0  0  0  0  0  3  0  0  0  0  0  0
 23 18  1  0
 30 31  1  0
 30 29  2  0
 31 32  2  0
 18 17  1  0
  6  7  2  0
  6  5  1  0
 12  4  1  0
  7  8  1  0
 29 28  1  0
 32 33  1  0
 25 26  1  0
 25 27  1  0
 25 19  1  0
  5  4  1  0
  5 11  2  0
  4  3  1  0
 17 19  1  0
 17 16  2  0
 28 33  2  0
 28  1  1  0
  8  9  1  0
  8 10  2  0
 19 20  1  0
  3  1  1  0
  3  2  2  0
 11 10  1  0
 11  2  1  0
  1 16  1  0
 16 21  1  0
  2 14  1  0
 20 21  1  0
 20 24  1  0
 21 22  2  0
 13 14  1  0
 14 15  1  0
M  RAD  8   1   2   6   2   7   2  10   2  13   2  14   2  15   2  19   2
M  RAD  8  25   2  26   2  27   2  29   2  30   2  31   2  32   2  33   2
M  END
>  <_TriposChargeType>  (1) 
GASTEIGER

>  <SuCOS_score>  (1) 
0.2661085075877091

>  <Volume_score>  (1) 
0.4661363385261297

>  <Feature_score>  (1) 
0.06608067664928857

$$$$
