DOCK.F36.P4k2y/L1014_ligand.pdbt
     RDKit          3D

 24 27  0  0  0  0  0  0  0  0999 V2000
   -0.2610   39.0720   23.2500 C   0  0  0  0  0  2  0  0  0  0  0  0
    1.6000   38.3960   24.8850 C   0  0  0  0  0  1  0  0  0  0  0  0
    2.5400   38.9400   23.9240 C   0  0  0  0  0  0  0  0  0  0  0  0
    3.9210   38.9960   24.1980 C   0  0  0  0  0  3  0  0  0  0  0  0
    4.8570   39.4020   23.2920 C   0  0  0  0  0  3  0  0  0  0  0  0
    4.4420   39.7770   22.0490 C   0  0  0  0  0  3  0  0  0  0  0  0
    3.0940   39.7420   21.7240 C   0  0  0  0  0  0  0  0  0  0  0  0
    2.7170   40.0760   20.4520 C   0  0  0  0  0  3  0  0  0  0  0  0
    1.4050   40.0000   20.1100 C   0  0  0  0  0  3  0  0  0  0  0  0
    0.4900   39.6080   21.0130 C   0  0  0  0  0  3  0  0  0  0  0  0
    0.8030   39.2500   22.3580 C   0  0  0  0  0  0  0  0  0  0  0  0
    2.1330   39.3270   22.6610 C   0  0  0  0  0  0  0  0  0  0  0  0
   -1.2290   38.1000   22.6160 N   0  0  0  0  0  0  0  0  0  0  0  0
   -2.4080   38.3660   22.0400 C   0  0  0  0  0  0  0  0  0  0  0  0
   -2.9840   37.1260   21.6690 C   0  0  0  0  0  3  0  0  0  0  0  0
   -2.1380   36.1180   22.0300 C   0  0  0  0  0  0  0  0  0  0  0  0
   -2.1930   34.7260   21.9340 C   0  0  0  0  0  3  0  0  0  0  0  0
   -1.1790   33.9370   22.4180 C   0  0  0  0  0  3  0  0  0  0  0  0
   -0.1080   34.5660   23.0000 C   0  0  0  0  0  3  0  0  0  0  0  0
   -0.0580   35.9480   23.0920 C   0  0  0  0  0  3  0  0  0  0  0  0
   -1.0580   36.7620   22.6160 C   0  0  0  0  0  0  0  0  0  0  0  0
   -3.0550   39.6280   21.7930 C   0  0  0  0  0  0  0  0  0  0  0  0
   -3.0010   40.1160   20.6000 O   0  0  0  0  0  1  0  0  0  0  0  0
   -3.7420   40.4060   22.6760 O   0  0  0  0  0  0  0  0  0  0  0  0
  9  8  2  0
  9 10  1  0
  8  7  1  0
 23 22  1  0
 10 11  2  0
 15 16  1  0
 15 14  2  0
  7  6  2  0
  7 12  1  0
 22 14  1  0
 22 24  2  0
 17 16  2  0
 17 18  1  0
 16 21  1  0
 14 13  1  0
  6  5  1  0
 11 12  1  0
 11  1  1  0
 18 19  2  0
 21 13  1  0
 21 20  2  0
 13  1  1  0
 12  3  2  0
 19 20  1  0
  5  4  2  0
  3  4  1  0
  3  2  1  0
M  RAD  8   1   3   2   2   4   2   5   2   6   2   8   2   9   2  10   2
M  CHG  1  23  -1
M  RAD  5  15   2  17   2  18   2  19   2  20   2
M  END
>  <_TriposChargeType>  (1) 
GASTEIGER

>  <SuCOS_score>  (1) 
0.31860245093149436

>  <Volume_score>  (1) 
0.349243177549442

>  <Feature_score>  (1) 
0.2879617243135467

$$$$
