DOCK.F36.P4k2y/L1016_ligand.pdbt
     RDKit          3D

 29 32  0  0  0  0  0  0  0  0999 V2000
   -2.0820   36.2550   23.0640 C   0  0  0  0  0  0  0  0  0  0  0  0
   -1.8070   37.6130   22.8360 C   0  0  0  0  0  0  0  0  0  0  0  0
   -0.8520   38.0160   23.6480 N   0  0  0  0  0  4  0  0  0  0  0  0
   -0.4970   36.8900   24.4310 C   0  0  0  0  0  0  0  0  0  0  0  0
    0.4220   36.7090   25.4230 C   0  0  0  0  0  3  0  0  0  0  0  0
    0.6000   35.5080   26.0470 C   0  0  0  0  0  3  0  0  0  0  0  0
   -0.1770   34.4330   25.6640 C   0  0  0  0  0  3  0  0  0  0  0  0
   -1.1120   34.5650   24.6730 C   0  0  0  0  0  3  0  0  0  0  0  0
   -1.2580   35.8190   24.0620 C   0  0  0  0  0  0  0  0  0  0  0  0
   -2.5090   38.3970   21.8270 C   0  0  0  0  0  0  0  0  0  0  0  0
   -2.4000   38.2040   20.6000 O   0  0  0  0  0  1  0  0  0  0  0  0
   -3.3590   39.4210   22.2110 O   0  0  0  0  0  0  0  0  0  0  0  0
   -3.0850   35.4130   22.3770 C   0  0  0  0  0  2  0  0  0  0  0  0
   -2.8650   34.4560   18.6390 C   0  0  0  0  0  1  0  0  0  0  0  0
   -3.3800   34.9230   19.9040 N   0  0  0  0  0  0  0  0  0  0  0  0
   -4.7290   35.4000   20.0000 C   0  0  0  0  0  1  0  0  0  0  0  0
   -2.5680   34.9310   21.0640 C   0  0  0  0  0  0  0  0  0  0  0  0
   -1.3740   34.5300   21.0140 O   0  0  0  0  0  0  0  0  0  0  0  0
   -0.1070   39.1990   23.8420 C   0  0  0  0  0  2  0  0  0  0  0  0
    0.6770   39.7350   22.6660 C   0  0  0  0  0  0  0  0  0  0  0  0
   -0.0170   40.2560   21.6050 C   0  0  0  0  0  3  0  0  0  0  0  0
    1.2000   40.5990   20.4670 S   0  0  0  0  0  0  0  0  0  0  0  0
    2.5630   40.0870   21.3450 C   0  0  0  0  0  0  0  0  0  0  0  0
    3.9390   40.1020   21.0740 C   0  0  0  0  0  3  0  0  0  0  0  0
    4.8460   39.6700   22.0110 C   0  0  0  0  0  3  0  0  0  0  0  0
    4.3210   39.2340   23.1970 C   0  0  0  0  0  0  0  0  0  0  0  0
    5.2000   38.8000   24.1400 F   0  0  0  0  0  0  0  0  0  0  0  0
    2.9860   39.2130   23.4750 C   0  0  0  0  0  3  0  0  0  0  0  0
    2.0280   39.6490   22.5280 C   0  0  0  0  0  0  0  0  0  0  0  0
 14 15  1  0
 15 16  1  0
 15 17  1  0
 22 23  1  0
 22 21  1  0
 11 10  1  0
 18 17  2  0
 17 13  1  0
 24 23  2  0
 24 25  1  0
 23 29  1  0
 21 20  2  0
 10 12  2  0
 10  2  1  0
 25 26  2  0
 13  1  1  0
 29 20  1  0
 29 28  2  0
 20 19  1  0
  2  1  2  0
  2  3  1  0
  1  9  1  0
 26 28  1  0
 26 27  1  0
  3 19  1  0
  3  4  1  0
  9  4  2  0
  9  8  1  0
  4  5  1  0
  8  7  2  0
  5  6  2  0
  7  6  1  0
M  RAD  8   5   2   6   2   7   2   8   2  13   3  14   2  16   2  19   3
M  CHG  2   3   1  11  -1
M  RAD  4  21   2  24   2  25   2  28   2
M  END
>  <_TriposChargeType>  (1) 
GASTEIGER

>  <SuCOS_score>  (1) 
0.29122632273246685

>  <Volume_score>  (1) 
0.3925088652482269

>  <Feature_score>  (1) 
0.18994378021670683

$$$$
