DOCK.F36.P4k2y/L1010_ligand.pdbt
     RDKit          3D

 24 27  0  0  0  0  0  0  0  0999 V2000
   -0.6390   39.8680   22.0900 C   0  0  0  0  0  0  0  0  0  0  0  0
    0.4450   40.3720   21.4030 C   0  0  0  0  0  3  0  0  0  0  0  0
    1.5660   39.9820   22.0970 C   0  0  0  0  0  0  0  0  0  0  0  0
    2.9320   40.2020   21.8710 C   0  0  0  0  0  3  0  0  0  0  0  0
    3.8910   39.7040   22.7190 C   0  0  0  0  0  3  0  0  0  0  0  0
    3.4810   38.9810   23.8000 C   0  0  0  0  0  3  0  0  0  0  0  0
    2.1380   38.7630   24.0250 C   0  0  0  0  0  3  0  0  0  0  0  0
    1.1540   39.2620   23.1750 C   0  0  0  0  0  0  0  0  0  0  0  0
   -0.1840   39.1990   23.1610 N   0  0  0  0  0  0  0  0  0  0  0  0
   -2.4000   39.5430   20.6000 O   0  0  0  0  0  1  0  0  0  0  0  0
   -2.0260   40.0650   21.6700 C   0  0  0  0  0  0  0  0  0  0  0  0
   -2.9440   40.8000   22.3980 O   0  0  0  0  0  0  0  0  0  0  0  0
   -0.9770   38.5250   24.1340 C   0  0  0  0  0  2  0  0  0  0  0  0
   -0.6610   37.1060   24.3060 C   0  0  0  0  0  0  0  0  0  0  0  0
   -0.0470   36.5980   25.4240 C   0  0  0  0  0  3  0  0  0  0  0  0
    0.1990   35.2450   25.4720 C   0  0  0  0  0  3  0  0  0  0  0  0
   -0.1440   34.3860   24.4500 C   0  0  0  0  0  3  0  0  0  0  0  0
   -0.7690   34.8940   23.3120 C   0  0  0  0  0  0  0  0  0  0  0  0
   -1.1200   34.0530   22.2780 C   0  0  0  0  0  3  0  0  0  0  0  0
   -1.7360   34.5880   21.1680 C   0  0  0  0  0  3  0  0  0  0  0  0
   -1.9980   35.9230   21.0810 C   0  0  0  0  0  0  0  0  0  0  0  0
   -2.6050   36.4910   20.0000 F   0  0  0  0  0  0  0  0  0  0  0  0
   -1.6330   36.7280   22.1290 C   0  0  0  0  0  3  0  0  0  0  0  0
   -1.0050   36.2450   23.2840 C   0  0  0  0  0  0  0  0  0  0  0  0
 22 21  1  0
 10 11  1  0
 21 20  2  0
 21 23  1  0
 20 19  1  0
  2  1  2  0
  2  3  1  0
 11  1  1  0
 11 12  2  0
  4  3  2  0
  4  5  1  0
  1  9  1  0
  3  8  1  0
 23 24  2  0
 19 18  2  0
  5  6  2  0
  9  8  1  0
  9 13  1  0
  8  7  2  0
 24 18  1  0
 24 14  1  0
 18 17  1  0
  6  7  1  0
 13 14  1  0
 14 15  2  0
 17 16  2  0
 15 16  1  0
M  RAD  8   2   2   4   2   5   2   6   2   7   2  13   3  15   2  16   2
M  CHG  1  10  -1
M  RAD  4  17   2  19   2  20   2  23   2
M  END
>  <_TriposChargeType>  (1) 
GASTEIGER

>  <SuCOS_score>  (1) 
0.2957690335239887

>  <Volume_score>  (1) 
0.33580684461180643

>  <Feature_score>  (1) 
0.25573122243617097

$$$$
