DOCK.F36.P4k2y/L1012_ligand.pdbt
     RDKit          3D

 30 32  0  0  0  0  0  0  0  0999 V2000
   -1.0100   37.0530   21.8030 N   0  0  0  0  0  0  0  0  0  0  0  0
   -0.0640   37.0200   21.3470 H   0  0  0  0  0  0  0  0  0  0  0  0
   -3.1920   40.6330   21.6510 C   0  0  0  0  0  0  0  0  0  0  0  0
   -3.8350   39.4430   21.3900 C   0  0  0  0  0  3  0  0  0  0  0  0
   -3.1040   38.2610   21.4440 C   0  0  0  0  0  3  0  0  0  0  0  0
   -1.7670   38.2390   21.7500 C   0  0  0  0  0  0  0  0  0  0  0  0
   -1.1440   39.4400   22.0080 C   0  0  0  0  0  0  0  0  0  0  0  0
   -1.8310   40.6360   21.9640 C   0  0  0  0  0  3  0  0  0  0  0  0
    0.5590   39.4560   22.4000 S   0  0  2  0  0  6  0  0  0  0  0  0
    1.5130   40.0010   20.9950 C   0  0  0  0  0  1  0  0  0  0  0  0
    1.0580   38.0600   22.7280 O   0  0  0  0  0  0  0  0  0  0  0  0
    0.8540   40.4000   23.5240 O   0  0  0  0  0  0  0  0  0  0  0  0
   -3.9260   41.8920   21.6030 C   0  0  0  0  0  0  0  0  0  0  0  0
   -3.6000   42.8000   20.8000 O   0  0  0  0  0  0  0  0  0  0  0  0
   -5.3550   43.4080   22.8570 C   0  0  0  0  0  1  0  0  0  0  0  0
   -4.9930   42.0980   22.4470 O   0  0  0  0  0  0  0  0  0  0  0  0
   -1.6020   35.6710   22.5930 S   0  0  2  0  0  6  0  0  0  0  0  0
   -1.8420   35.9520   24.0500 O   0  0  0  0  0  0  0  0  0  0  0  0
   -0.5460   34.5920   22.5490 O   0  0  0  0  0  0  0  0  0  0  0  0
   -3.1190   35.0770   21.9490 C   0  0  0  0  0  0  0  0  0  0  0  0
   -4.5330   34.7160   22.8190 S   0  0  0  0  0  0  0  0  0  0  0  0
   -5.5340   34.2100   21.5340 C   0  0  0  0  0  0  0  0  0  0  0  0
   -6.8590   33.7570   21.4630 C   0  0  0  0  0  3  0  0  0  0  0  0
   -7.4170   33.4080   20.2420 C   0  0  0  0  0  3  0  0  0  0  0  0
   -6.5920   33.5420   19.1570 C   0  0  0  0  0  0  0  0  0  0  0  0
   -7.1340   33.2000   17.9440 F   0  0  0  0  0  0  0  0  0  0  0  0
   -5.3020   33.9810   19.2010 C   0  0  0  0  0  3  0  0  0  0  0  0
   -4.7240   34.3390   20.4420 C   0  0  0  0  0  0  0  0  0  0  0  0
   -3.4650   34.7890   20.6580 C   0  0  0  0  0  0  0  0  0  0  0  0
   -2.4110   35.0010   19.5730 C   0  0  0  0  0  1  0  0  0  0  0  0
 26 25  1  0
 25 27  2  0
 25 24  1  0
 27 28  1  0
 30 29  1  0
 24 23  2  0
 28 29  1  0
 28 22  2  0
 29 20  2  0
 14 13  2  0
  9 10  1  6
  2  1  1  0
  4  5  1  0
  4  3  2  0
  5  6  2  0
 23 22  1  0
 22 21  1  0
 13  3  1  0
 13 16  1  0
  3  8  1  0
  6  1  1  0
  6  7  1  0
 17  1  1  6
 20 17  1  0
 20 21  1  0
  8  7  2  0
  7  9  1  0
  9 11  2  0
  9 12  2  0
 16 15  1  0
 19 17  2  0
 17 18  2  0
M  RAD  8   4   2   5   2   8   2  10   2  15   2  23   2  24   2  27   2
M  RAD  1  30   2
M  END
>  <_TriposChargeType>  (1) 
GASTEIGER

>  <SuCOS_score>  (1) 
0.20669968194514218

>  <Volume_score>  (1) 
0.35493144626271567

>  <Feature_score>  (1) 
0.0584679176275687

$$$$
