DOCK.F36.P4k2y/L1011_ligand.pdbt
     RDKit          3D

 30 33  0  0  0  0  0  0  0  0999 V2000
   -2.0010   37.4520   21.4580 C   0  0  0  0  0  0  0  0  0  0  0  0
   -3.0080   37.7970   22.3520 C   0  0  0  0  0  0  0  0  0  0  0  0
   -4.1150   37.0520   22.0420 N   0  0  0  0  0  4  0  0  0  0  0  0
   -3.8440   36.2520   20.9940 C   0  0  0  0  0  0  0  0  0  0  0  0
   -4.5730   35.3090   20.2890 C   0  0  0  0  0  3  0  0  0  0  0  0
   -4.0450   34.6000   19.2290 C   0  0  0  0  0  3  0  0  0  0  0  0
   -2.7340   34.8670   18.8820 C   0  0  0  0  0  0  0  0  0  0  0  0
   -2.2070   34.1800   17.8400 F   0  0  0  0  0  0  0  0  0  0  0  0
   -2.0000   35.7960   19.5700 C   0  0  0  0  0  3  0  0  0  0  0  0
   -2.5450   36.4930   20.6280 C   0  0  0  0  0  0  0  0  0  0  0  0
   -2.8010   38.7480   23.4280 C   0  0  0  0  0  0  0  0  0  0  0  0
   -2.8060   40.0000   23.2000 O   0  0  0  0  0  1  0  0  0  0  0  0
   -2.5850   38.3700   24.7430 O   0  0  0  0  0  0  0  0  0  0  0  0
   -0.6080   37.9580   21.3980 C   0  0  0  0  0  2  0  0  0  0  0  0
    1.5430   38.1280   24.5990 C   0  0  0  0  0  1  0  0  0  0  0  0
    0.8280   38.5970   23.4150 N   0  0  0  0  0  0  0  0  0  0  0  0
    0.8740   39.9990   23.1410 C   0  0  0  0  0  1  0  0  0  0  0  0
    0.1430   37.6560   22.6260 C   0  0  0  0  0  0  0  0  0  0  0  0
    0.1580   36.4290   22.9830 O   0  0  0  0  0  0  0  0  0  0  0  0
   -5.3720   37.2050   22.7400 C   0  0  0  0  0  2  0  0  0  0  0  0
   -6.4440   37.5440   21.7700 C   0  0  0  0  0  0  0  0  0  0  0  0
   -7.4450   36.6170   21.4980 C   0  0  0  0  0  3  0  0  0  0  0  0
   -8.5250   36.9470   20.6910 C   0  0  0  0  0  3  0  0  0  0  0  0
   -8.6020   38.2060   20.1570 C   0  0  0  0  0  3  0  0  0  0  0  0
   -7.6440   39.1610   20.3870 C   0  0  0  0  0  0  0  0  0  0  0  0
   -7.7480   40.4170   19.7760 C   0  0  0  0  0  3  0  0  0  0  0  0
   -6.7330   41.3230   19.9990 C   0  0  0  0  0  3  0  0  0  0  0  0
   -5.6500   41.0440   20.7800 C   0  0  0  0  0  3  0  0  0  0  0  0
   -5.5940   39.7670   21.3730 C   0  0  0  0  0  3  0  0  0  0  0  0
   -6.5690   38.8160   21.1960 C   0  0  0  0  0  0  0  0  0  0  0  0
  8  7  1  0
  7  6  2  0
  7  9  1  0
  6  5  1  0
  9 10  2  0
 26 27  2  0
 26 25  1  0
 27 28  1  0
 24 25  2  0
 24 23  1  0
  5  4  2  0
 25 30  1  0
 10  4  1  0
 10  1  1  0
 23 22  2  0
 28 29  2  0
  4  3  1  0
 30 29  1  0
 30 21  2  0
 14  1  1  0
 14 18  1  0
  1  2  2  0
 22 21  1  0
 21 20  1  0
  3  2  1  0
  3 20  1  0
  2 11  1  0
 18 19  2  0
 18 16  1  0
 17 16  1  0
 12 11  1  0
 16 15  1  0
 11 13  2  0
M  RAD  8   5   2   6   2   9   2  14   3  15   2  17   2  20   3  22   2
M  CHG  2   3   1  12  -1
M  RAD  6  23   2  24   2  26   2  27   2  28   2  29   2
M  END
>  <_TriposChargeType>  (1) 
GASTEIGER

>  <SuCOS_score>  (1) 
0.21420173082861235

>  <Volume_score>  (1) 
0.42271572201966634

>  <Feature_score>  (1) 
0.00568773963755836

$$$$
