DOCK.F36.P4kp0/L1009_ligand.pdbt
     RDKit          3D

 34 38  0  0  0  0  0  0  0  0999 V2000
   -2.5790   38.8110   22.8560 C   0  0  0  0  0  3  0  0  0  0  0  0
   -0.0110   37.7470   24.4460 C   0  0  0  0  0  1  0  0  0  0  0  0
   -0.0430   38.6540   23.2590 C   0  0  0  0  0  0  0  0  0  0  0  0
   -1.1450   39.1180   22.5740 C   0  0  0  0  0  0  0  0  0  0  0  0
   -0.6450   39.8990   21.6010 N   0  0  0  0  0  0  0  0  0  0  0  0
    0.6870   39.9490   21.6390 C   0  0  0  0  0  0  0  0  0  0  0  0
    1.6590   40.5990   20.8710 C   0  0  0  0  0  3  0  0  0  0  0  0
    2.9860   40.4240   21.1990 C   0  0  0  0  0  3  0  0  0  0  0  0
    3.4030   39.6370   22.2480 C   0  0  0  0  0  0  0  0  0  0  0  0
    4.7350   39.5040   22.5240 F   0  0  0  0  0  0  0  0  0  0  0  0
    2.4450   39.0000   23.0010 C   0  0  0  0  0  3  0  0  0  0  0  0
    1.1030   39.1620   22.6890 C   0  0  0  0  0  0  0  0  0  0  0  0
   -1.1990   40.4300   20.8720 H   0  0  0  0  0  0  0  0  0  0  0  0
   -3.4290   40.0180   22.9050 C   0  0  0  0  0  0  0  0  0  0  0  0
   -3.5720   41.0000   22.0450 C   0  0  0  0  0  0  0  0  0  0  0  0
   -2.9120   41.1470   20.8000 O   0  0  0  0  0  0  0  0  0  0  0  0
   -4.5480   41.9900   22.5440 C   0  0  0  0  0  3  0  0  0  0  0  0
   -5.0030   41.5000   23.7670 O   0  0  0  0  0  0  0  0  0  0  0  0
   -4.3450   40.3180   24.0290 C   0  0  0  0  0  0  0  0  0  0  0  0
   -4.5240   39.6360   25.0690 O   0  0  0  0  0  0  0  0  0  0  0  0
   -2.3910   42.0210   20.7020 H   0  0  0  0  0  0  0  0  0  0  0  0
   -5.7570   42.1030   21.6320 C   0  0  0  0  0  2  0  0  0  0  0  0
   -6.4650   40.7980   21.5920 C   0  0  0  0  0  0  0  0  0  0  0  0
   -6.3990   40.0000   20.4720 C   0  0  0  0  0  3  0  0  0  0  0  0
   -7.0490   38.7760   20.4000 C   0  0  0  0  0  3  0  0  0  0  0  0
   -7.7960   38.3300   21.4880 C   0  0  0  0  0  3  0  0  0  0  0  0
   -7.8520   39.1350   22.5970 C   0  0  0  0  0  3  0  0  0  0  0  0
   -7.2050   40.3500   22.6670 C   0  0  0  0  0  3  0  0  0  0  0  0
   -3.1000   37.7720   21.9510 C   0  0  0  0  0  0  0  0  0  0  0  0
   -4.4000   37.2790   22.0590 C   0  0  0  0  0  3  0  0  0  0  0  0
   -4.8250   36.3040   21.1830 C   0  0  0  0  0  3  0  0  0  0  0  0
   -4.0020   35.8000   20.2000 C   0  0  0  0  0  3  0  0  0  0  0  0
   -2.7020   36.2870   20.0850 C   0  0  0  0  0  3  0  0  0  0  0  0
   -2.2990   37.2490   20.9580 C   0  0  0  0  0  3  0  0  0  0  0  0
 33 32  2  0
 33 34  1  0
 32 31  1  0
 25 24  2  0
 25 26  1  0
 24 23  1  0
 21 16  1  0
 16 15  1  0
  7  8  2  0
  7  6  1  0
 13  5  1  0
 34 29  2  0
 31 30  2  0
  8  9  1  0
 26 27  2  0
 23 22  1  0
 23 28  2  0
  5  6  1  0
  5  4  1  0
 22 17  1  0
  6 12  2  0
 29 30  1  0
 29  1  1  0
 15 17  1  0
 15 14  2  0
  9 10  1  0
  9 11  2  0
 17 18  1  0
  4  1  1  0
  4  3  2  0
 27 28  1  0
 12 11  1  0
 12  3  1  0
  1 14  1  0
 14 19  1  0
  3  2  1  0
 18 19  1  0
 19 20  2  0
M  RAD  8   1   2   2   2   7   2   8   2  11   2  17   2  22   3  24   2
M  RAD  8  25   2  26   2  27   2  28   2  30   2  31   2  32   2  33   2
M  RAD  1  34   2
M  END
>  <_TriposChargeType>  (1) 
GASTEIGER

>  <SuCOS_score>  (1) 
0.2759142096194509

>  <Volume_score>  (1) 
0.4750856258976909

>  <Feature_score>  (1) 
0.07674279334121088

$$$$
