DOCK.F36.P4kp0/L1003_ligand.pdbt
     RDKit          3D

 32 35  0  0  0  0  0  0  0  0999 V2000
   -2.7150   36.6870   22.8460 N   0  0  0  0  0  0  0  0  0  0  0  0
   -2.0300   35.8920   23.0330 H   0  0  0  0  0  0  0  0  0  0  0  0
   -3.8640   36.3650   22.1250 C   0  0  0  0  0  0  0  0  0  0  0  0
   -5.1380   36.4250   22.6690 C   0  0  0  0  0  3  0  0  0  0  0  0
   -6.2650   36.0920   21.9350 C   0  0  0  0  0  3  0  0  0  0  0  0
   -6.1550   35.6850   20.6250 C   0  0  0  0  0  0  0  0  0  0  0  0
   -4.9020   35.6190   20.0700 C   0  0  0  0  0  3  0  0  0  0  0  0
   -3.7740   35.9550   20.8130 C   0  0  0  0  0  0  0  0  0  0  0  0
   -7.3010   35.3220   19.8030 C   0  0  0  0  0  0  0  0  0  0  0  0
   -7.3880   34.0850   19.1840 C   0  0  0  0  0  3  0  0  0  0  0  0
   -8.4580   33.7110   18.4000 C   0  0  0  0  0  3  0  0  0  0  0  0
   -9.4740   34.5960   18.2270 N   0  0  0  0  0  0  0  0  0  0  0  0
   -9.4130   35.7980   18.8140 C   0  0  0  0  0  3  0  0  0  0  0  0
   -8.3530   36.1920   19.6020 C   0  0  0  0  0  3  0  0  0  0  0  0
   -2.4780   35.8420   20.1230 C   0  0  2  0  0  0  0  0  0  0  0  0
   -1.6000   34.9860   20.7260 F   0  0  0  0  0  0  0  0  0  0  0  0
   -1.9300   37.1280   19.9990 F   0  0  0  0  0  0  0  0  0  0  0  0
   -2.6390   35.4000   18.8250 F   0  0  0  0  0  0  0  0  0  0  0  0
   -2.2670   38.2100   23.4770 S   0  0  1  0  0  6  0  0  0  0  0  0
   -3.2480   39.2790   23.0540 O   0  0  0  0  0  0  0  0  0  0  0  0
   -2.3490   38.2000   25.0000 O   0  0  0  0  0  0  0  0  0  0  0  0
    0.6590   37.7960   24.9730 C   0  0  0  0  0  1  0  0  0  0  0  0
    0.5700   38.5240   23.6400 C   0  0  0  0  0  0  0  0  0  0  0  0
   -0.6390   38.6720   23.0440 C   0  0  0  0  0  0  0  0  0  0  0  0
   -0.2540   39.5200   21.6000 S   0  0  0  0  0  0  0  0  0  0  0  0
    1.4290   39.6560   21.8040 C   0  0  0  0  0  0  0  0  0  0  0  0
    2.4330   40.2320   21.0230 C   0  0  0  0  0  3  0  0  0  0  0  0
    3.7480   40.2010   21.4330 C   0  0  0  0  0  3  0  0  0  0  0  0
    3.9750   39.5740   22.6410 C   0  0  0  0  0  0  0  0  0  0  0  0
    5.2780   39.5380   23.0560 F   0  0  0  0  0  0  0  0  0  0  0  0
    3.0000   39.0070   23.4120 C   0  0  0  0  0  3  0  0  0  0  0  0
    1.6530   39.0360   22.9960 C   0  0  0  0  0  0  0  0  0  0  0  0
 12 11  1  0
 12 13  2  0
 11 10  2  0
 13 14  1  0
 15 18  1  6
 10  9  1  0
 14  9  2  0
  9  6  1  0
 17 15  1  0
  7  6  2  0
  7  8  1  0
 15 16  1  0
 15  8  1  0
  6  5  1  0
  8  3  2  0
 27 28  2  0
 27 26  1  0
 28 29  1  0
 25 26  1  0
 25 24  1  0
 26 32  2  0
  5  4  2  0
  3  4  1  0
  3  1  1  0
 29 30  1  0
 29 31  2  0
  1  2  1  0
 19  1  1  6
 32 31  1  0
 32 23  1  0
 24 19  1  0
 24 23  2  0
 20 19  2  0
 19 21  2  0
 23 22  1  0
M  RAD  8   4   2   5   2   7   2  10   2  11   2  13   2  14   2  22   2
M  RAD  3  27   2  28   2  31   2
M  END
>  <_TriposChargeType>  (1) 
GASTEIGER

>  <SuCOS_score>  (1) 
0.2534032758636542

>  <Volume_score>  (1) 
0.36951705804164825

>  <Feature_score>  (1) 
0.13728949368566015

$$$$
