DOCK.F36.P4kp0/L1004_ligand.pdbt
     RDKit          3D

 33 36  0  0  0  0  0  0  0  0999 V2000
   -4.3960   38.5790   22.3100 C   0  0  0  0  0  3  0  0  0  0  0  0
   -4.3740   36.3180   21.0710 C   0  0  0  0  0  0  0  0  0  0  0  0
   -4.9570   37.4900   21.5380 C   0  0  0  0  0  0  0  0  0  0  0  0
   -6.2720   37.4460   21.1810 N   0  0  0  0  0  0  0  0  0  0  0  0
   -6.5680   36.3220   20.5180 C   0  0  0  0  0  0  0  0  0  0  0  0
   -7.7350   35.8310   19.9630 C   0  0  0  0  0  3  0  0  0  0  0  0
   -7.7640   34.6140   19.3140 C   0  0  0  0  0  3  0  0  0  0  0  0
   -6.5950   33.8890   19.2280 C   0  0  0  0  0  0  0  0  0  0  0  0
   -6.6000   32.6880   18.6000 F   0  0  0  0  0  0  0  0  0  0  0  0
   -5.4300   34.4020   19.7940 C   0  0  0  0  0  3  0  0  0  0  0  0
   -5.3660   35.6090   20.4490 C   0  0  0  0  0  0  0  0  0  0  0  0
   -7.0150   38.1850   21.3780 H   0  0  0  0  0  0  0  0  0  0  0  0
   -2.5960   34.7710   21.9660 C   0  0  0  0  0  1  0  0  0  0  0  0
   -2.9640   36.0230   21.2120 C   0  0  0  0  0  3  0  0  0  0  0  0
   -2.3450   35.8000   19.7990 C   0  0  0  0  0  1  0  0  0  0  0  0
   -2.8910   38.4760   22.4860 C   0  0  0  0  0  0  0  0  0  0  0  0
   -1.9340   38.8380   21.6560 C   0  0  0  0  0  0  0  0  0  0  0  0
   -2.2000   39.4130   20.4000 O   0  0  0  0  0  0  0  0  0  0  0  0
   -0.5860   38.5680   22.2070 C   0  0  0  0  0  3  0  0  0  0  0  0
   -0.8270   37.9600   23.4730 N   0  0  0  0  0  0  0  0  0  0  0  0
   -2.2290   37.9100   23.6570 C   0  0  0  0  0  0  0  0  0  0  0  0
   -2.8770   37.4560   24.6600 O   0  0  0  0  0  0  0  0  0  0  0  0
   -1.8020   40.3190   20.1670 H   0  0  0  0  0  0  0  0  0  0  0  0
   -0.0940   37.6210   24.1280 H   0  0  0  0  0  0  0  0  0  0  0  0
    0.2560   39.8180   22.3020 C   0  0  0  0  0  3  0  0  0  0  0  0
    1.2940   39.6890   23.4000 C   0  0  0  0  0  1  0  0  0  0  0  0
    0.9820   40.0000   20.9950 C   0  0  0  0  0  1  0  0  0  0  0  0
   -4.8220   39.9440   22.0050 C   0  0  0  0  0  0  0  0  0  0  0  0
   -5.4930   40.2950   20.8470 C   0  0  0  0  0  3  0  0  0  0  0  0
   -5.9010   41.5920   20.6030 C   0  0  0  0  0  3  0  0  0  0  0  0
   -5.6540   42.6010   21.5090 C   0  0  0  0  0  3  0  0  0  0  0  0
   -4.9870   42.2620   22.6620 C   0  0  0  0  0  3  0  0  0  0  0  0
   -4.5900   40.9720   22.8920 C   0  0  0  0  0  3  0  0  0  0  0  0
  9  8  1  0
  8  7  2  0
  8 10  1  0
  7  6  1  0
 10 11  2  0
 15 14  1  0
  6  5  2  0
 23 18  1  0
 18 17  1  0
 11  5  1  0
 11  2  1  0
  5  4  1  0
 30 29  2  0
 30 31  1  0
 29 28  1  0
 27 25  1  0
  2 14  1  0
  2  3  2  0
  4 12  1  0
  4  3  1  0
 14 13  1  0
 31 32  2  0
  3  1  1  0
 17 19  1  0
 17 16  2  0
 28  1  1  0
 28 33  2  0
 19 25  1  0
 19 20  1  0
 25 26  1  0
  1 16  1  0
 16 21  1  0
 32 33  1  0
 20 21  1  0
 20 24  1  0
 21 22  2  0
M  RAD  8   1   2   6   2   7   2  10   2  13   2  14   2  15   2  19   2
M  RAD  8  25   2  26   2  27   2  29   2  30   2  31   2  32   2  33   2
M  END
>  <_TriposChargeType>  (1) 
GASTEIGER

>  <SuCOS_score>  (1) 
0.22067031877930168

>  <Volume_score>  (1) 
0.38562741846323934

>  <Feature_score>  (1) 
0.05571321909536404

$$$$
