DOCK.F36.P2hvx/L1007_ligand.pdbt
     RDKit          3D

 31 35  0  0  0  0  0  0  0  0999 V2000
   -2.3650   37.9800   22.6860 C   0  0  0  0  0  3  0  0  0  0  0  0
   -0.9830   38.4490   22.6650 C   0  0  0  0  0  0  0  0  0  0  0  0
   -0.2760   38.3740   23.8780 C   0  0  0  0  0  3  0  0  0  0  0  0
    1.0250   38.7770   24.0150 C   0  0  0  0  0  3  0  0  0  0  0  0
    1.6820   39.2840   22.9170 C   0  0  0  0  0  0  0  0  0  0  0  0
    3.0050   39.6990   23.0380 C   0  0  0  0  0  3  0  0  0  0  0  0
    3.6550   40.2040   21.9400 C   0  0  0  0  0  3  0  0  0  0  0  0
    2.9660   40.2790   20.7520 C   0  0  0  0  0  3  0  0  0  0  0  0
    1.6640   39.8720   20.6260 C   0  0  0  0  0  3  0  0  0  0  0  0
    0.9860   39.3580   21.7240 C   0  0  0  0  0  0  0  0  0  0  0  0
   -0.3240   38.9510   21.5900 C   0  0  0  0  0  3  0  0  0  0  0  0
   -6.1550   40.1030   21.5520 C   0  0  0  0  0  1  0  0  0  0  0  0
   -4.8320   40.4480   22.2530 C   0  0  2  0  0  0  0  0  0  0  0  0
   -3.6950   40.0260   21.4800 C   0  0  0  0  0  0  0  0  0  0  0  0
   -3.1990   40.3930   20.3970 O   0  0  0  0  0  0  0  0  0  0  0  0
   -3.4030   39.0350   22.4720 C   0  0  0  0  0  0  0  0  0  0  0  0
   -4.4420   39.4190   23.1790 C   0  0  0  0  0  0  0  0  0  0  0  0
   -5.0020   39.0030   24.3990 O   0  0  0  0  0  0  0  0  0  0  0  0
   -5.4110   38.0750   24.4120 H   0  0  0  0  0  0  0  0  0  0  0  0
   -4.8340   41.8410   22.7590 C   0  0  0  0  0  0  0  0  0  0  0  0
   -5.3100   42.8290   21.9300 C   0  0  0  0  0  3  0  0  0  0  0  0
   -5.3500   44.1570   22.3170 C   0  0  0  0  0  3  0  0  0  0  0  0
   -4.9060   44.5240   23.5630 C   0  0  0  0  0  3  0  0  0  0  0  0
   -4.4290   43.5300   24.3920 C   0  0  0  0  0  3  0  0  0  0  0  0
   -4.3930   42.2050   23.9940 C   0  0  0  0  0  3  0  0  0  0  0  0
   -2.5090   36.8100   21.8040 C   0  0  0  0  0  0  0  0  0  0  0  0
   -1.6840   35.7130   21.9310 C   0  0  0  0  0  3  0  0  0  0  0  0
   -1.7740   34.6120   21.1230 C   0  0  0  0  0  3  0  0  0  0  0  0
   -2.7260   34.5820   20.1370 C   0  0  0  0  0  3  0  0  0  0  0  0
   -3.5600   35.6730   19.9980 C   0  0  0  0  0  3  0  0  0  0  0  0
   -3.4730   36.7900   20.8120 C   0  0  0  0  0  3  0  0  0  0  0  0
 30 29  2  0
 30 31  1  0
 29 28  1  0
 15 14  2  0
  9  8  2  0
  9 10  1  0
  8  7  1  0
 31 26  2  0
 28 27  2  0
 14 13  1  0
 14 16  1  0
 13 12  1  6
 11 10  2  0
 11  2  1  0
 10  5  1  0
 26 27  1  0
 26  1  1  0
 21 22  2  0
 21 20  1  0
  7  6  2  0
 13 20  1  0
 13 17  1  0
 22 23  1  0
 16  1  1  0
 16 17  2  0
  2  1  1  0
  2  3  2  0
 20 25  2  0
  5  6  1  0
  5  4  2  0
 17 18  1  0
 23 24  2  0
  3  4  1  0
 25 24  1  0
 18 19  1  0
M  RAD  8   1   2   3   2   4   2   6   2   7   2   8   2   9   2  11   2
M  RAD  8  12   2  21   2  22   2  23   2  24   2  25   2  27   2  28   2
M  RAD  3  29   2  30   2  31   2
M  END
>  <_TriposChargeType>  (1) 
GASTEIGER

>  <SuCOS_score>  (1) 
0.29271772467083756

>  <Volume_score>  (1) 
0.4739807756049055

>  <Feature_score>  (1) 
0.11145467373676969

$$$$
