DOCK.F36.P2hvx/L1002_ligand.pdbt
     RDKit          3D

 40 44  0  0  0  0  0  0  0  0999 V2000
   -3.0050   37.6840   22.6210 C   0  0  0  0  0  3  0  0  0  0  0  0
    2.3700   40.1760   21.5660 C   0  0  0  0  0  0  0  0  0  0  0  0
    2.7220   39.6500   22.7930 C   0  0  0  0  0  3  0  0  0  0  0  0
    1.7920   38.9410   23.5000 C   0  0  0  0  0  3  0  0  0  0  0  0
    0.5150   38.7640   22.9720 C   0  0  0  0  0  0  0  0  0  0  0  0
   -0.6070   38.1160   23.4320 C   0  0  0  0  0  0  0  0  0  0  0  0
   -1.6290   38.2380   22.5130 C   0  0  0  0  0  0  0  0  0  0  0  0
   -1.1430   38.9610   21.4810 N   0  0  0  0  0  0  0  0  0  0  0  0
    0.1500   39.2880   21.7380 C   0  0  0  0  0  0  0  0  0  0  0  0
    1.1050   40.0060   21.0320 C   0  0  0  0  0  3  0  0  0  0  0  0
   -1.6130   39.2610   20.5990 H   0  0  0  0  0  0  0  0  0  0  0  0
    4.5010   40.0000   20.3350 C   0  0  0  0  0  1  0  0  0  0  0  0
    3.4210   40.9390   20.8360 C   0  0  0  0  0  2  0  0  0  0  0  0
   -0.6910   37.4060   24.7190 C   0  0  0  0  0  2  0  0  0  0  0  0
   -0.1790   36.0110   24.6750 C   0  0  0  0  0  2  0  0  0  0  0  0
   -1.0950   35.1730   23.9460 N   0  0  0  0  0  0  0  0  0  0  0  0
   -0.7340   34.0950   23.1290 C   0  0  0  0  0  0  0  0  0  0  0  0
   -1.7630   33.2620   22.4000 C   0  0  0  0  0  1  0  0  0  0  0  0
    0.4860   33.8100   23.0000 O   0  0  0  0  0  0  0  0  0  0  0  0
   -2.1280   35.3970   24.0390 H   0  0  0  0  0  0  0  0  0  0  0  0
   -4.0260   38.7850   22.6410 C   0  0  0  0  0  0  0  0  0  0  0  0
   -4.2350   39.7390   21.7840 C   0  0  0  0  0  0  0  0  0  0  0  0
   -3.5150   39.9540   20.6000 O   0  0  0  0  0  0  0  0  0  0  0  0
   -5.3550   40.6200   22.1920 C   0  0  0  0  0  3  0  0  0  0  0  0
   -5.9880   39.9430   23.3610 C   0  0  0  0  0  2  0  0  0  0  0  0
   -4.9880   38.9150   23.7270 C   0  0  0  0  0  0  0  0  0  0  0  0
   -5.0000   38.2710   24.8230 O   0  0  0  0  0  0  0  0  0  0  0  0
   -4.0600   40.0930   19.7560 H   0  0  0  0  0  0  0  0  0  0  0  0
   -6.3270   40.8240   21.0910 C   0  0  0  0  0  0  0  0  0  0  0  0
   -6.5690   42.0960   20.6280 C   0  0  0  0  0  3  0  0  0  0  0  0
   -7.4730   42.3310   19.6000 C   0  0  0  0  0  3  0  0  0  0  0  0
   -8.1440   41.2620   19.0320 C   0  0  0  0  0  3  0  0  0  0  0  0
   -7.8990   39.9850   19.4990 C   0  0  0  0  0  3  0  0  0  0  0  0
   -6.9970   39.7730   20.5190 C   0  0  0  0  0  3  0  0  0  0  0  0
   -3.2530   36.7400   21.5100 C   0  0  0  0  0  0  0  0  0  0  0  0
   -2.2310   36.4830   20.6340 C   0  0  0  0  0  3  0  0  0  0  0  0
   -2.4000   35.6180   19.5810 C   0  0  0  0  0  3  0  0  0  0  0  0
   -3.6120   34.9940   19.3910 C   0  0  0  0  0  3  0  0  0  0  0  0
   -4.6250   35.2670   20.2830 C   0  0  0  0  0  3  0  0  0  0  0  0
   -4.4580   36.1360   21.3430 C   0  0  0  0  0  3  0  0  0  0  0  0
 32 33  2  0
 32 31  1  0
 38 37  1  0
 38 39  2  0
 33 34  1  0
 37 36  2  0
 31 30  2  0
 28 23  1  0
 39 40  1  0
 12 13  1  0
 34 29  2  0
 11  8  1  0
 23 22  1  0
 30 29  1  0
 36 35  1  0
 13  2  1  0
 10  2  2  0
 10  9  1  0
 29 24  1  0
 40 35  2  0
  8  9  1  0
  8  7  1  0
 35  1  1  0
  2  3  1  0
  9  5  2  0
 22 24  1  0
 22 21  2  0
 24 25  1  0
 18 17  1  0
  7  1  1  0
  7  6  2  0
  1 21  1  0
 21 26  1  0
  3  4  2  0
  5  6  1  0
  5  4  1  0
 19 17  2  0
 17 16  1  0
 25 26  1  0
  6 14  1  0
 26 27  2  0
 16 20  1  0
 16 15  1  0
 15 14  1  0
M  RAD  8   1   2   3   2   4   2  10   2  12   2  13   3  14   3  15   3
M  RAD  8  18   2  24   2  25   3  30   2  31   2  32   2  33   2  34   2
M  RAD  5  36   2  37   2  38   2  39   2  40   2
M  END
>  <_TriposChargeType>  (1) 
GASTEIGER

>  <SuCOS_score>  (1) 
0.29761303133709444

>  <Volume_score>  (1) 
0.5044326241134751

>  <Feature_score>  (1) 
0.09079343856071379

$$$$
