DOCK.F36.P2hvx/L1017_ligand.pdbt
     RDKit          3D

 31 34  0  0  0  0  0  0  0  0999 V2000
   -2.1670   36.7620   21.1200 C   0  0  0  0  0  0  0  0  0  0  0  0
   -3.2670   36.9490   21.9230 C   0  0  0  0  0  0  0  0  0  0  0  0
   -4.3240   36.2770   21.4850 N   0  0  0  0  0  4  0  0  0  0  0  0
   -3.9560   35.6290   20.3790 C   0  0  0  0  0  0  0  0  0  0  0  0
   -4.5980   34.7890   19.4730 C   0  0  0  0  0  3  0  0  0  0  0  0
   -4.0220   34.2250   18.3740 C   0  0  0  0  0  3  0  0  0  0  0  0
   -2.6740   34.5080   18.1180 C   0  0  0  0  0  0  0  0  0  0  0  0
   -2.0770   33.9940   17.0360 F   0  0  0  0  0  0  0  0  0  0  0  0
   -1.9990   35.3330   18.9980 C   0  0  0  0  0  3  0  0  0  0  0  0
   -2.5960   35.8940   20.1060 C   0  0  0  0  0  0  0  0  0  0  0  0
   -3.1710   37.7840   23.1690 C   0  0  0  0  0  0  0  0  0  0  0  0
   -2.9930   37.1990   24.2560 O   0  0  0  0  0  1  0  0  0  0  0  0
   -3.2830   39.1500   23.2010 O   0  0  0  0  0  0  0  0  0  0  0  0
   -0.9420   37.5400   21.0480 C   0  0  0  0  0  2  0  0  0  0  0  0
   -0.9050   38.8000   20.4000 N   0  0  0  0  0  0  0  0  0  0  0  0
   -1.7030   39.2570   20.0150 H   0  0  0  0  0  0  0  0  0  0  0  0
    1.6360   40.0050   20.9270 C   0  0  0  0  0  1  0  0  0  0  0  0
   -0.0270   39.8400   21.5030 S   0  0  2  0  0  6  0  0  0  0  0  0
   -0.1060   39.3860   22.8850 O   0  0  0  0  0  0  0  0  0  0  0  0
   -0.6720   41.2460   21.4040 O   0  0  0  0  0  0  0  0  0  0  0  0
   -5.5870   36.1340   22.1620 C   0  0  0  0  0  2  0  0  0  0  0  0
   -6.7400   36.5040   21.3370 C   0  0  0  0  0  0  0  0  0  0  0  0
   -7.6590   35.6250   20.8900 C   0  0  0  0  0  3  0  0  0  0  0  0
   -8.7070   36.0060   20.0920 C   0  0  0  0  0  3  0  0  0  0  0  0
   -8.8550   37.3280   19.7120 C   0  0  0  0  0  3  0  0  0  0  0  0
   -7.8930   38.2440   20.1770 C   0  0  0  0  0  0  0  0  0  0  0  0
   -8.0300   39.5660   19.8130 C   0  0  0  0  0  3  0  0  0  0  0  0
   -7.1130   40.4860   20.2580 C   0  0  0  0  0  3  0  0  0  0  0  0
   -6.0630   40.1240   21.0590 C   0  0  0  0  0  3  0  0  0  0  0  0
   -5.9630   38.8190   21.4020 C   0  0  0  0  0  3  0  0  0  0  0  0
   -6.8740   37.8220   20.9670 C   0  0  0  0  0  0  0  0  0  0  0  0
  8  7  1  0
  7  6  2  0
  7  9  1  0
  6  5  1  0
  9 10  2  0
  5  4  2  0
 25 24  1  0
 25 26  2  0
 27 26  1  0
 27 28  2  0
 16 15  1  0
 24 23  2  0
 10  4  1  0
 10  1  1  0
 26 31  1  0
 28 29  1  0
  4  3  1  0
 15 14  1  0
 15 18  1  0
 23 22  1  0
 18 17  1  6
 31 22  2  0
 31 30  1  0
 14  1  1  0
 29 30  2  0
  1  2  2  0
 22 21  1  0
 20 18  2  0
  3  2  1  0
  3 21  1  0
 18 19  2  0
  2 11  1  0
 11 13  2  0
 11 12  1  0
M  RAD  8   5   2   6   2   9   2  14   3  17   2  21   3  23   2  24   2
M  CHG  2   3   1  12  -1
M  RAD  5  25   2  27   2  28   2  29   2  30   2
M  END
>  <_TriposChargeType>  (1) 
GASTEIGER

>  <SuCOS_score>  (1) 
0.20179694898062558

>  <Volume_score>  (1) 
0.39401993355481724

>  <Feature_score>  (1) 
0.009573964406433908

$$$$
