DOCK.F36.P2hvx/L1011_ligand.pdbt
     RDKit          3D

 30 33  0  0  0  0  0  0  0  0999 V2000
   -5.5250   40.6030   20.7070 C   0  0  0  0  0  0  0  0  0  0  0  0
   -5.1960   39.4200   21.3600 C   0  0  0  0  0  0  0  0  0  0  0  0
   -6.2350   38.5440   21.1860 N   0  0  0  0  0  4  0  0  0  0  0  0
   -7.1990   39.1260   20.4480 C   0  0  0  0  0  0  0  0  0  0  0  0
   -8.4310   38.7090   19.9730 C   0  0  0  0  0  3  0  0  0  0  0  0
   -9.2490   39.5180   19.2100 C   0  0  0  0  0  3  0  0  0  0  0  0
   -8.7900   40.7910   18.9290 C   0  0  0  0  0  0  0  0  0  0  0  0
   -9.5870   41.5970   18.1860 F   0  0  0  0  0  0  0  0  0  0  0  0
   -7.5740   41.2190   19.3920 C   0  0  0  0  0  3  0  0  0  0  0  0
   -6.7710   40.3930   20.1510 C   0  0  0  0  0  0  0  0  0  0  0  0
   -3.9230   39.2290   22.0270 C   0  0  0  0  0  0  0  0  0  0  0  0
   -2.8400   39.1790   21.3610 O   0  0  0  0  0  1  0  0  0  0  0  0
   -3.7990   39.0880   23.4000 O   0  0  0  0  0  0  0  0  0  0  0  0
   -4.7190   41.8410   20.5800 C   0  0  0  0  0  2  0  0  0  0  0  0
   -4.7970   43.7400   23.9390 C   0  0  0  0  0  1  0  0  0  0  0  0
   -5.2750   43.2120   22.6650 N   0  0  0  0  0  0  0  0  0  0  0  0
   -6.6200   43.5280   22.2940 C   0  0  0  0  0  1  0  0  0  0  0  0
   -4.4010   42.4310   21.8880 C   0  0  0  0  0  0  0  0  0  0  0  0
   -3.2260   42.2000   22.3340 O   0  0  0  0  0  0  0  0  0  0  0  0
   -6.2500   37.2310   21.7880 C   0  0  0  0  0  2  0  0  0  0  0  0
   -5.6310   36.2490   20.8620 C   0  0  0  0  0  0  0  0  0  0  0  0
   -4.2450   36.2020   20.7360 C   0  0  0  0  0  3  0  0  0  0  0  0
   -3.6310   35.2190   19.9740 C   0  0  0  0  0  3  0  0  0  0  0  0
   -4.4030   34.2830   19.3380 C   0  0  0  0  0  3  0  0  0  0  0  0
   -5.7730   34.2800   19.4240 C   0  0  0  0  0  0  0  0  0  0  0  0
   -6.5160   33.3280   18.7150 C   0  0  0  0  0  3  0  0  0  0  0  0
   -7.8900   33.4010   18.7940 C   0  0  0  0  0  3  0  0  0  0  0  0
   -8.5400   34.3500   19.5270 C   0  0  0  0  0  3  0  0  0  0  0  0
   -7.7470   35.2830   20.2230 C   0  0  0  0  0  3  0  0  0  0  0  0
   -6.3740   35.2710   20.1900 C   0  0  0  0  0  0  0  0  0  0  0  0
  8  7  1  0
 26 27  2  0
 26 25  1  0
 27 28  1  0
  7  6  2  0
  7  9  1  0
  6  5  1  0
 24 25  2  0
 24 23  1  0
  9 10  2  0
 25 30  1  0
 28 29  2  0
  5  4  2  0
 23 22  2  0
 10  4  1  0
 10  1  1  0
 30 29  1  0
 30 21  2  0
  4  3  1  0
 14  1  1  0
 14 18  1  0
  1  2  2  0
 22 21  1  0
 21 20  1  0
  3  2  1  0
  3 20  1  0
  2 11  1  0
 12 11  1  0
 18 19  2  0
 18 16  1  0
 11 13  2  0
 17 16  1  0
 16 15  1  0
M  RAD  8   5   2   6   2   9   2  14   3  15   2  17   2  20   3  22   2
M  CHG  2   3   1  12  -1
M  RAD  6  23   2  24   2  26   2  27   2  28   2  29   2
M  END
>  <_TriposChargeType>  (1) 
GASTEIGER

>  <SuCOS_score>  (1) 
0.16968766171457794

>  <Volume_score>  (1) 
0.30686955562906604

>  <Feature_score>  (1) 
0.03250576780008984

$$$$
