DOCK.F36.P2hvx/L1010_ligand.pdbt
     RDKit          3D

 24 27  0  0  0  0  0  0  0  0999 V2000
   -3.4520   38.6090   21.8010 C   0  0  0  0  0  0  0  0  0  0  0  0
   -4.5400   37.8170   21.4980 C   0  0  0  0  0  3  0  0  0  0  0  0
   -4.0580   36.7380   20.7950 C   0  0  0  0  0  0  0  0  0  0  0  0
   -4.6970   35.6230   20.2360 C   0  0  0  0  0  3  0  0  0  0  0  0
   -3.9940   34.6530   19.5640 C   0  0  0  0  0  3  0  0  0  0  0  0
   -2.6430   34.8000   19.4500 C   0  0  0  0  0  3  0  0  0  0  0  0
   -2.0110   35.8960   19.9990 C   0  0  0  0  0  3  0  0  0  0  0  0
   -2.7110   36.8880   20.6830 C   0  0  0  0  0  0  0  0  0  0  0  0
   -2.3540   38.0240   21.2960 N   0  0  0  0  0  0  0  0  0  0  0  0
   -4.2190   39.8740   23.6000 O   0  0  0  0  0  1  0  0  0  0  0  0
   -3.5450   39.8620   22.5500 C   0  0  0  0  0  0  0  0  0  0  0  0
   -2.9260   41.0320   22.1530 O   0  0  0  0  0  0  0  0  0  0  0  0
   -1.0200   38.5150   21.3870 C   0  0  0  0  0  2  0  0  0  0  0  0
   -0.3520   38.2430   22.6600 C   0  0  0  0  0  0  0  0  0  0  0  0
   -0.9010   37.4670   23.6520 C   0  0  0  0  0  3  0  0  0  0  0  0
   -0.1780   37.2820   24.8080 C   0  0  0  0  0  3  0  0  0  0  0  0
    1.0670   37.8410   25.0080 C   0  0  0  0  0  3  0  0  0  0  0  0
    1.6310   38.6290   24.0060 C   0  0  0  0  0  0  0  0  0  0  0  0
    2.8740   39.1970   24.1860 C   0  0  0  0  0  3  0  0  0  0  0  0
    3.4030   39.9700   23.1770 C   0  0  0  0  0  3  0  0  0  0  0  0
    2.7180   40.1770   22.0150 C   0  0  0  0  0  0  0  0  0  0  0  0
    3.2070   40.9360   20.9920 F   0  0  0  0  0  0  0  0  0  0  0  0
    1.4850   39.5970   21.8730 C   0  0  0  0  0  3  0  0  0  0  0  0
    0.8940   38.8010   22.8620 C   0  0  0  0  0  0  0  0  0  0  0  0
  6  5  2  0
  6  7  1  0
  5  4  1  0
  7  8  2  0
  4  3  2  0
  8  3  1  0
  8  9  1  0
  3  2  1  0
 22 21  1  0
  9 13  1  0
  9  1  1  0
 13 14  1  0
  2  1  2  0
  1 11  1  0
 23 21  1  0
 23 24  2  0
 21 20  2  0
 12 11  2  0
 11 10  1  0
 14 24  1  0
 14 15  2  0
 24 18  1  0
 20 19  1  0
 15 16  1  0
 18 19  2  0
 18 17  1  0
 16 17  2  0
M  RAD  8   2   2   4   2   5   2   6   2   7   2  13   3  15   2  16   2
M  CHG  1  10  -1
M  RAD  4  17   2  19   2  20   2  23   2
M  END
>  <_TriposChargeType>  (1) 
GASTEIGER

>  <SuCOS_score>  (1) 
0.2930379656883095

>  <Volume_score>  (1) 
0.4053695724229367

>  <Feature_score>  (1) 
0.18070635895368226

$$$$
