DOCK.F36.P2hvx/L1016_ligand.pdbt
     RDKit          3D

 29 32  0  0  0  0  0  0  0  0999 V2000
   -5.1570   38.8750   21.3650 C   0  0  0  0  0  0  0  0  0  0  0  0
   -5.7820   37.6170   21.3530 C   0  0  0  0  0  0  0  0  0  0  0  0
   -4.8720   36.6670   21.4060 N   0  0  0  0  0  4  0  0  0  0  0  0
   -3.6170   37.3240   21.4490 C   0  0  0  0  0  0  0  0  0  0  0  0
   -2.3360   36.8600   21.5130 C   0  0  0  0  0  3  0  0  0  0  0  0
   -1.2560   37.6940   21.5520 C   0  0  0  0  0  3  0  0  0  0  0  0
   -1.4630   39.0590   21.5260 C   0  0  0  0  0  3  0  0  0  0  0  0
   -2.7310   39.5720   21.4620 C   0  0  0  0  0  3  0  0  0  0  0  0
   -3.8070   38.6750   21.4240 C   0  0  0  0  0  0  0  0  0  0  0  0
   -7.2300   37.4620   21.2980 C   0  0  0  0  0  0  0  0  0  0  0  0
   -8.0000   37.8040   22.2170 O   0  0  0  0  0  1  0  0  0  0  0  0
   -7.8270   36.9120   20.1760 O   0  0  0  0  0  0  0  0  0  0  0  0
   -5.8070   40.2030   21.3140 C   0  0  0  0  0  2  0  0  0  0  0  0
   -4.6740   43.0420   23.6780 C   0  0  0  0  0  1  0  0  0  0  0  0
   -4.9530   42.2900   22.4770 N   0  0  0  0  0  0  0  0  0  0  0  0
   -4.6760   42.8590   21.1910 C   0  0  0  0  0  1  0  0  0  0  0  0
   -5.5110   40.9900   22.5440 C   0  0  0  0  0  0  0  0  0  0  0  0
   -5.7780   40.4630   23.6570 O   0  0  0  0  0  0  0  0  0  0  0  0
   -4.8680   35.2590   21.5030 C   0  0  0  0  0  2  0  0  0  0  0  0
   -5.3600   34.4720   20.3090 C   0  0  0  0  0  0  0  0  0  0  0  0
   -6.5920   33.8750   20.3870 C   0  0  0  0  0  3  0  0  0  0  0  0
   -6.6960   32.9940   18.9360 S   0  0  0  0  0  0  0  0  0  0  0  0
   -5.1910   33.3930   18.2520 C   0  0  0  0  0  0  0  0  0  0  0  0
   -4.5780   33.0770   17.0300 C   0  0  0  0  0  3  0  0  0  0  0  0
   -3.3510   33.5990   16.7020 C   0  0  0  0  0  3  0  0  0  0  0  0
   -2.7840   34.4280   17.6320 C   0  0  0  0  0  0  0  0  0  0  0  0
   -1.5670   34.9560   17.3290 F   0  0  0  0  0  0  0  0  0  0  0  0
   -3.3660   34.7440   18.8230 C   0  0  0  0  0  3  0  0  0  0  0  0
   -4.6290   34.2190   19.1900 C   0  0  0  0  0  0  0  0  0  0  0  0
 25 24  1  0
 25 26  2  0
 24 23  2  0
 27 26  1  0
 26 28  1  0
 23 22  1  0
 23 29  1  0
 28 29  2  0
 22 21  1  0
 29 20  1  0
 12 10  2  0
 20 21  2  0
 20 19  1  0
 16 15  1  0
 10  2  1  0
 10 11  1  0
 13  1  1  0
 13 17  1  0
  2  1  2  0
  2  3  1  0
  1  9  1  0
  3  4  1  0
  3 19  1  0
  9  4  2  0
  9  8  1  0
  4  5  1  0
  8  7  2  0
  5  6  2  0
  7  6  1  0
 15 17  1  0
 15 14  1  0
 17 18  2  0
M  RAD  8   5   2   6   2   7   2   8   2  13   3  14   2  16   2  19   3
M  CHG  2   3   1  11  -1
M  RAD  4  21   2  24   2  25   2  28   2
M  END
>  <_TriposChargeType>  (1) 
GASTEIGER

>  <SuCOS_score>  (1) 
0.17089429278645327

>  <Volume_score>  (1) 
0.33840008876067906

>  <Feature_score>  (1) 
0.0033884968122274593

$$$$
