DOCK.F40.P5yjp/L1005_ligand.pdbt
     RDKit          3D

 31 34  0  0  0  0  0  0  0  0999 V2000
   -4.2340   38.8080   21.5860 C   0  0  0  0  0  0  0  0  0  0  0  0
   -3.1480   39.6970   21.7440 C   0  0  0  0  0  0  0  0  0  0  0  0
   -2.0180   39.0990   21.3930 N   0  0  0  0  0  4  0  0  0  0  0  0
   -2.3290   37.8020   21.0010 C   0  0  0  0  0  0  0  0  0  0  0  0
   -1.4560   36.8180   20.5890 C   0  0  0  0  0  3  0  0  0  0  0  0
   -2.0010   35.5640   20.2780 C   0  0  0  0  0  3  0  0  0  0  0  0
   -3.3550   35.3630   20.3910 C   0  0  0  0  0  0  0  0  0  0  0  0
   -3.9080   34.1390   20.0870 F   0  0  0  0  0  0  0  0  0  0  0  0
   -4.1930   36.3830   20.8090 C   0  0  0  0  0  3  0  0  0  0  0  0
   -3.6920   37.6360   21.1240 C   0  0  0  0  0  0  0  0  0  0  0  0
   -3.3640   41.0490   22.2610 C   0  0  0  0  0  0  0  0  0  0  0  0
   -3.9140   41.2600   23.3970 O   0  0  0  0  0  1  0  0  0  0  0  0
   -3.0030   42.2000   21.6000 O   0  0  0  0  0  0  0  0  0  0  0  0
   -5.6270   39.1400   21.9020 C   0  0  0  0  0  2  0  0  0  0  0  0
   -7.8550   39.5870   20.8170 C   0  0  0  0  0  0  0  0  0  0  0  0
   -8.4300   38.8950   21.7140 O   0  0  0  0  0  0  0  0  0  0  0  0
   -6.4430   39.7170   20.8980 N   0  0  0  0  0  0  0  0  0  0  0  0
   -6.0130   40.3140   20.1150 H   0  0  0  0  0  0  0  0  0  0  0  0
   -8.2210   41.4000   19.2000 C   0  0  0  0  0  1  0  0  0  0  0  0
   -8.6000   40.1840   19.8030 O   0  0  0  0  0  0  0  0  0  0  0  0
   -0.6570   39.6050   21.4340 C   0  0  0  0  0  2  0  0  0  0  0  0
   -0.0200   39.3160   22.7040 C   0  0  0  0  0  0  0  0  0  0  0  0
   -0.7760   38.9740   23.8150 C   0  0  0  0  0  3  0  0  0  0  0  0
   -0.2580   38.5820   25.0290 C   0  0  0  0  0  3  0  0  0  0  0  0
    1.1170   38.5330   25.1210 C   0  0  0  0  0  3  0  0  0  0  0  0
    1.9090   38.8600   24.0670 C   0  0  0  0  0  0  0  0  0  0  0  0
    3.2650   38.8380   24.2450 C   0  0  0  0  0  3  0  0  0  0  0  0
    4.1250   39.2110   23.2180 C   0  0  0  0  0  3  0  0  0  0  0  0
    3.5640   39.6070   22.0080 C   0  0  0  0  0  3  0  0  0  0  0  0
    2.1990   39.6300   21.8220 C   0  0  0  0  0  3  0  0  0  0  0  0
    1.3520   39.2580   22.8360 C   0  0  0  0  0  0  0  0  0  0  0  0
 19 20  1  0
 20 15  1  0
  8  7  1  0
 18 17  1  0
  6  7  2  0
  6  5  1  0
  7  9  1  0
  5  4  2  0
  9 10  2  0
 15 17  1  0
 15 16  2  0
 17 14  1  0
  4 10  1  0
  4  3  1  0
 10  1  1  0
  3 21  1  0
  3  2  1  0
 21 22  1  0
  1  2  2  0
  1 14  1  0
 13 11  2  0
  2 11  1  0
 30 29  1  0
 30 31  2  0
 29 28  2  0
 11 12  1  0
 22 31  1  0
 22 23  2  0
 31 26  1  0
 28 27  1  0
 23 24  1  0
 26 27  2  0
 26 25  1  0
 24 25  2  0
M  RAD  8   5   2   6   2   9   2  14   3  19   2  21   3  23   2  24   2
M  CHG  2   3   1  12  -1
M  RAD  5  25   2  27   2  28   2  29   2  30   2
M  END
>  <_TriposChargeType>  (1) 
GASTEIGER

>  <SuCOS_score>  (1) 
0.34193366808256637

>  <Volume_score>  (1) 
0.5017125179538173

>  <Feature_score>  (1) 
0.18215481821131543

$$$$
