DOCK.F40.P5yjp/L1006_ligand.pdbt
     RDKit          3D

 42 46  0  0  0  0  0  0  0  0999 V2000
   -2.5890   38.3190   22.3490 C   0  0  0  0  0  3  0  0  0  0  0  0
   -0.3850   38.7410   23.6770 C   0  0  0  0  0  0  0  0  0  0  0  0
   -1.2200   38.7390   22.5500 C   0  0  0  0  0  0  0  0  0  0  0  0
   -0.4060   39.0970   21.5130 N   0  0  0  0  0  0  0  0  0  0  0  0
    0.8370   39.3060   21.9070 C   0  0  0  0  0  0  0  0  0  0  0  0
    1.9660   39.6650   21.1620 C   0  0  0  0  0  3  0  0  0  0  0  0
    3.1780   39.8100   21.7770 C   0  0  0  0  0  0  0  0  0  0  0  0
    4.4020   40.1950   20.9990 C   0  0  0  0  0  1  0  0  0  0  0  0
    3.2240   39.5890   23.1300 C   0  0  0  0  0  3  0  0  0  0  0  0
    2.1140   39.2360   23.8630 C   0  0  0  0  0  3  0  0  0  0  0  0
    0.8820   39.0860   23.2630 C   0  0  0  0  0  0  0  0  0  0  0  0
   -0.7120   39.2040   20.4990 H   0  0  0  0  0  0  0  0  0  0  0  0
   -0.8430   38.5300   25.0260 C   0  0  0  0  0  2  0  0  0  0  0  0
   -1.0070   37.1290   25.5490 C   0  0  1  0  0  0  0  0  0  0  0  0
    0.1530   36.2370   25.0490 C   0  0  0  0  0  1  0  0  0  0  0  0
   -1.0660   36.9990   27.0290 C   0  0  0  0  0  1  0  0  0  0  0  0
   -4.7680   36.4960   24.9310 C   0  0  0  0  0  1  0  0  0  0  0  0
   -3.4690   37.0630   25.4240 C   0  0  0  0  0  0  0  0  0  0  0  0
   -3.4780   38.0430   26.2090 O   0  0  0  0  0  0  0  0  0  0  0  0
   -2.2240   36.4830   24.9940 N   0  0  0  0  0  0  0  0  0  0  0  0
   -2.1980   35.6840   24.3520 H   0  0  0  0  0  0  0  0  0  0  0  0
   -3.4700   39.5270   22.1230 C   0  0  0  0  0  0  0  0  0  0  0  0
   -3.3090   40.7790   21.8340 C   0  0  0  0  0  0  0  0  0  0  0  0
   -2.1710   41.5680   21.6000 O   0  0  0  0  0  0  0  0  0  0  0  0
   -4.7390   41.1040   21.8350 C   0  0  1  0  0  0  0  0  0  0  0  0
   -5.3470   41.4780   20.5170 C   0  0  0  0  0  1  0  0  0  0  0  0
   -4.9090   39.6890   22.1620 C   0  0  0  0  0  0  0  0  0  0  0  0
   -5.8880   38.9270   22.3850 O   0  0  0  0  0  0  0  0  0  0  0  0
   -1.9830   41.7940   20.6260 H   0  0  0  0  0  0  0  0  0  0  0  0
   -5.0270   42.0620   22.9480 C   0  0  0  0  0  0  0  0  0  0  0  0
   -5.1350   41.6470   24.2650 C   0  0  0  0  0  3  0  0  0  0  0  0
   -5.4000   42.5530   25.2820 C   0  0  0  0  0  3  0  0  0  0  0  0
   -5.5630   43.8930   25.0050 C   0  0  0  0  0  0  0  0  0  0  0  0
   -5.8520   44.8810   26.1050 C   0  0  0  0  0  1  0  0  0  0  0  0
   -5.4630   44.3300   23.7210 C   0  0  0  0  0  3  0  0  0  0  0  0
   -5.1990   43.4120   22.7250 C   0  0  0  0  0  3  0  0  0  0  0  0
   -2.9440   37.2560   21.4330 C   0  0  0  0  0  0  0  0  0  0  0  0
   -2.0230   36.7980   20.5370 C   0  0  0  0  0  3  0  0  0  0  0  0
   -2.3170   35.7970   19.6360 C   0  0  0  0  0  3  0  0  0  0  0  0
   -3.5710   35.2070   19.5990 C   0  0  0  0  0  3  0  0  0  0  0  0
   -4.5120   35.6520   20.4900 C   0  0  0  0  0  3  0  0  0  0  0  0
   -4.2060   36.6510   21.3850 C   0  0  0  0  0  3  0  0  0  0  0  0
 40 39  1  0
 40 41  2  0
 39 38  2  0
 41 42  1  0
 12  4  1  0
 25 26  1  6
 38 37  1  0
 29 24  1  0
  8  7  1  0
  6  7  2  0
  6  5  1  0
 42 37  2  0
 37  1  1  0
  4  5  1  0
  4  3  1  0
 24 23  1  0
  7  9  1  0
 23 25  1  0
 23 22  2  0
 25 27  1  0
 25 30  1  0
  5 11  2  0
 22 27  1  0
 22  1  1  0
 27 28  2  0
  1  3  1  0
  3  2  2  0
 36 30  1  0
 36 35  2  0
 30 31  2  0
  9 10  2  0
 11  2  1  0
 11 10  1  0
  2 13  1  0
 35 33  1  0
 31 32  1  0
 21 20  1  0
 17 18  1  0
 20 18  1  0
 20 14  1  0
 33 32  2  0
 33 34  1  0
 13 14  1  0
 14 15  1  6
 18 19  2  0
 14 16  1  0
M  RAD  8   1   2   6   2   8   2   9   2  10   2  13   3  15   2  16   2
M  RAD  8  17   2  26   2  31   2  32   2  34   2  35   2  36   2  38   2
M  RAD  4  39   2  40   2  41   2  42   2
M  END
>  <_TriposChargeType>  (1) 
GASTEIGER

>  <SuCOS_score>  (1) 
0.4511386236508138

>  <Volume_score>  (1) 
0.6252906654855498

>  <Feature_score>  (1) 
0.2769865818160779

$$$$
