DOCK.F36.P3s0n/L1009_ligand.pdbt
     RDKit          3D

 34 38  0  0  0  0  0  0  0  0999 V2000
   -2.6740   38.9580   22.5860 C   0  0  0  0  0  3  0  0  0  0  0  0
   -0.0790   37.9480   24.1670 C   0  0  0  0  0  1  0  0  0  0  0  0
   -0.1320   38.8200   22.9550 C   0  0  0  0  0  0  0  0  0  0  0  0
   -1.2460   39.2620   22.2740 C   0  0  0  0  0  0  0  0  0  0  0  0
   -0.7630   40.0160   21.2720 N   0  0  0  0  0  0  0  0  0  0  0  0
    0.5690   40.0720   21.2890 C   0  0  0  0  0  0  0  0  0  0  0  0
    1.5270   40.7040   20.4880 C   0  0  0  0  0  3  0  0  0  0  0  0
    2.8600   40.5420   20.8020 C   0  0  0  0  0  3  0  0  0  0  0  0
    3.2950   39.7870   21.8660 C   0  0  0  0  0  0  0  0  0  0  0  0
    4.6320   39.6650   22.1260 F   0  0  0  0  0  0  0  0  0  0  0  0
    2.3500   39.1670   22.6510 C   0  0  0  0  0  3  0  0  0  0  0  0
    1.0030   39.3160   22.3550 C   0  0  0  0  0  0  0  0  0  0  0  0
   -1.3300   40.5250   20.5370 H   0  0  0  0  0  0  0  0  0  0  0  0
   -3.5420   40.1530   22.5430 C   0  0  0  0  0  0  0  0  0  0  0  0
   -4.2710   40.7150   23.4800 C   0  0  0  0  0  0  0  0  0  0  0  0
   -4.4090   40.2900   24.8240 O   0  0  0  0  0  0  0  0  0  0  0  0
   -4.9710   41.9040   22.9510 C   0  0  0  0  0  3  0  0  0  0  0  0
   -4.5730   42.0240   21.6200 O   0  0  0  0  0  0  0  0  0  0  0  0
   -3.7200   40.9810   21.3300 C   0  0  0  0  0  0  0  0  0  0  0  0
   -3.1990   40.8010   20.2000 O   0  0  0  0  0  0  0  0  0  0  0  0
   -5.3730   40.1080   25.1100 H   0  0  0  0  0  0  0  0  0  0  0  0
   -4.5440   43.1760   23.6610 C   0  0  0  0  0  2  0  0  0  0  0  0
   -5.6900   44.1190   23.7090 C   0  0  0  0  0  0  0  0  0  0  0  0
   -5.4970   45.4660   23.5020 C   0  0  0  0  0  3  0  0  0  0  0  0
   -6.5440   46.3760   23.5420 C   0  0  0  0  0  3  0  0  0  0  0  0
   -7.8360   45.9230   23.8010 C   0  0  0  0  0  3  0  0  0  0  0  0
   -8.0140   44.5790   24.0050 C   0  0  0  0  0  3  0  0  0  0  0  0
   -6.9720   43.6780   23.9640 C   0  0  0  0  0  3  0  0  0  0  0  0
   -3.1840   37.8440   21.7680 C   0  0  0  0  0  0  0  0  0  0  0  0
   -4.5260   37.4640   21.7860 C   0  0  0  0  0  3  0  0  0  0  0  0
   -4.9370   36.4100   21.0010 C   0  0  0  0  0  3  0  0  0  0  0  0
   -4.0610   35.7170   20.1950 C   0  0  0  0  0  3  0  0  0  0  0  0
   -2.7180   36.0900   20.1710 C   0  0  0  0  0  3  0  0  0  0  0  0
   -2.3300   37.1320   20.9530 C   0  0  0  0  0  3  0  0  0  0  0  0
 33 32  2  0
 33 34  1  0
 32 31  1  0
 20 19  2  0
  7  8  2  0
  7  6  1  0
 13  5  1  0
  8  9  1  0
 34 29  2  0
 31 30  2  0
  5  6  1  0
  5  4  1  0
  6 12  2  0
 19 18  1  0
 19 14  1  0
 18 17  1  0
 29 30  1  0
 29  1  1  0
  9 10  1  0
  9 11  2  0
  4  1  1  0
  4  3  2  0
 12 11  1  0
 12  3  1  0
 14  1  1  0
 14 15  2  0
 17 15  1  0
 17 22  1  0
  3  2  1  0
 15 16  1  0
 24 25  2  0
 24 23  1  0
 25 26  1  0
 22 23  1  0
 23 28  2  0
 26 27  2  0
 28 27  1  0
 16 21  1  0
M  RAD  8   1   2   2   2   7   2   8   2  11   2  17   2  22   3  24   2
M  RAD  8  25   2  26   2  27   2  28   2  30   2  31   2  32   2  33   2
M  RAD  1  34   2
M  END
>  <_TriposChargeType>  (1) 
GASTEIGER

>  <SuCOS_score>  (1) 
0.29536461900067207

>  <Volume_score>  (1) 
0.46050160203292456

>  <Feature_score>  (1) 
0.1302276359684196

$$$$
