DOCK.F36.P3s0n/L1002_ligand.pdbt
     RDKit          3D

 40 44  0  0  0  0  0  0  0  0999 V2000
   -2.5150   38.0210   22.7240 C   0  0  0  0  0  3  0  0  0  0  0  0
    2.9230   40.1640   21.2970 C   0  0  0  0  0  0  0  0  0  0  0  0
    3.2820   39.7680   22.5700 C   0  0  0  0  0  3  0  0  0  0  0  0
    2.3430   39.1810   23.3700 C   0  0  0  0  0  3  0  0  0  0  0  0
    1.0490   38.9950   22.8880 C   0  0  0  0  0  0  0  0  0  0  0  0
   -0.0870   38.4480   23.4380 C   0  0  0  0  0  0  0  0  0  0  0  0
   -1.1220   38.5050   22.5280 C   0  0  0  0  0  0  0  0  0  0  0  0
   -0.6320   39.0860   21.4130 N   0  0  0  0  0  0  0  0  0  0  0  0
    0.6770   39.3890   21.6080 C   0  0  0  0  0  0  0  0  0  0  0  0
    1.6420   39.9840   20.8080 C   0  0  0  0  0  3  0  0  0  0  0  0
   -1.1100   39.3020   20.5100 H   0  0  0  0  0  0  0  0  0  0  0  0
    4.2070   40.0000   19.1960 C   0  0  0  0  0  1  0  0  0  0  0  0
    3.9860   40.7980   20.4660 C   0  0  0  0  0  2  0  0  0  0  0  0
   -0.1680   37.8930   24.7990 C   0  0  0  0  0  2  0  0  0  0  0  0
    0.6000   36.6340   24.9870 C   0  0  0  0  0  2  0  0  0  0  0  0
    0.4000   35.7630   23.8580 N   0  0  0  0  0  0  0  0  0  0  0  0
   -0.4480   34.6500   23.8340 C   0  0  0  0  0  0  0  0  0  0  0  0
   -0.6030   33.7870   22.6020 C   0  0  0  0  0  1  0  0  0  0  0  0
   -1.1040   34.3600   24.8690 O   0  0  0  0  0  0  0  0  0  0  0  0
    0.9440   35.9870   22.9760 H   0  0  0  0  0  0  0  0  0  0  0  0
   -3.4830   39.1690   22.7490 C   0  0  0  0  0  0  0  0  0  0  0  0
   -3.7200   40.0750   21.8490 C   0  0  0  0  0  0  0  0  0  0  0  0
   -3.0910   40.1790   20.6000 O   0  0  0  0  0  0  0  0  0  0  0  0
   -4.7640   41.0340   22.2830 C   0  0  0  0  0  3  0  0  0  0  0  0
   -5.3280   40.4640   23.5410 C   0  0  0  0  0  2  0  0  0  0  0  0
   -4.3460   39.4140   23.8960 C   0  0  0  0  0  0  0  0  0  0  0  0
   -4.2960   38.8440   25.0310 O   0  0  0  0  0  0  0  0  0  0  0  0
   -3.6970   40.2900   19.7940 H   0  0  0  0  0  0  0  0  0  0  0  0
   -5.8130   41.2140   21.2510 C   0  0  0  0  0  0  0  0  0  0  0  0
   -6.2980   40.1170   20.5780 C   0  0  0  0  0  3  0  0  0  0  0  0
   -7.2780   40.2420   19.6030 C   0  0  0  0  0  3  0  0  0  0  0  0
   -7.7760   41.4980   19.3010 C   0  0  0  0  0  3  0  0  0  0  0  0
   -7.2870   42.5990   19.9770 C   0  0  0  0  0  3  0  0  0  0  0  0
   -6.3140   42.4530   20.9430 C   0  0  0  0  0  3  0  0  0  0  0  0
   -2.8610   37.0500   21.6630 C   0  0  0  0  0  0  0  0  0  0  0  0
   -4.1090   36.4830   21.6820 C   0  0  0  0  0  3  0  0  0  0  0  0
   -4.4890   35.5740   20.7260 C   0  0  0  0  0  3  0  0  0  0  0  0
   -3.6110   35.2170   19.7270 C   0  0  0  0  0  3  0  0  0  0  0  0
   -2.3630   35.7990   19.7280 C   0  0  0  0  0  3  0  0  0  0  0  0
   -1.9780   36.7140   20.6870 C   0  0  0  0  0  3  0  0  0  0  0  0
 12 13  1  0
 32 31  1  0
 32 33  2  0
 31 30  2  0
 38 39  2  0
 38 37  1  0
 39 40  1  0
 28 23  1  0
 33 34  1  0
 13  2  1  0
 11  8  1  0
 30 29  1  0
 23 22  1  0
 40 35  2  0
 37 36  2  0
 10  2  2  0
 10  9  1  0
 34 29  2  0
 29 24  1  0
  2  3  1  0
  8  9  1  0
  8  7  1  0
  9  5  2  0
 35 36  1  0
 35  1  1  0
 22 24  1  0
 22 21  2  0
 24 25  1  0
  7  1  1  0
  7  6  2  0
  3  4  2  0
 18 17  1  0
  1 21  1  0
 21 26  1  0
  5  4  1  0
  5  6  1  0
 20 16  1  0
  6 14  1  0
 25 26  1  0
 17 16  1  0
 17 19  2  0
 16 15  1  0
 26 27  2  0
 14 15  1  0
M  RAD  8   1   2   3   2   4   2  10   2  12   2  13   3  14   3  15   3
M  RAD  8  18   2  24   2  25   3  30   2  31   2  32   2  33   2  34   2
M  RAD  5  36   2  37   2  38   2  39   2  40   2
M  END
>  <_TriposChargeType>  (1) 
GASTEIGER

>  <SuCOS_score>  (1) 
0.3047017107573185

>  <Volume_score>  (1) 
0.5153157138117881

>  <Feature_score>  (1) 
0.0940877077028489

$$$$
