DOCK.F36.P3s0n/L1007_ligand.pdbt
     RDKit          3D

 31 35  0  0  0  0  0  0  0  0999 V2000
   -1.5060   38.0050   23.4430 C   0  0  0  0  0  3  0  0  0  0  0  0
   -0.1020   38.3970   23.3730 C   0  0  0  0  0  0  0  0  0  0  0  0
    0.6610   38.2050   24.5380 C   0  0  0  0  0  3  0  0  0  0  0  0
    1.9890   38.5260   24.6270 C   0  0  0  0  0  3  0  0  0  0  0  0
    2.6170   39.0650   23.5270 C   0  0  0  0  0  0  0  0  0  0  0  0
    3.9670   39.3980   23.5990 C   0  0  0  0  0  3  0  0  0  0  0  0
    4.5870   39.9350   22.5000 C   0  0  0  0  0  3  0  0  0  0  0  0
    3.8420   40.1250   21.3590 C   0  0  0  0  0  3  0  0  0  0  0  0
    2.5140   39.8000   21.2810 C   0  0  0  0  0  3  0  0  0  0  0  0
    1.8650   39.2550   22.3810 C   0  0  0  0  0  0  0  0  0  0  0  0
    0.5280   38.9300   22.2960 C   0  0  0  0  0  3  0  0  0  0  0  0
   -3.3910   41.7620   21.8650 C   0  0  0  0  0  1  0  0  0  0  0  0
   -3.7570   40.2740   21.9760 C   0  0  2  0  0  0  0  0  0  0  0  0
   -3.5680   39.7780   23.3130 C   0  0  0  0  0  0  0  0  0  0  0  0
   -4.1380   39.9830   24.4020 O   0  0  0  0  0  0  0  0  0  0  0  0
   -2.4740   38.9780   22.8480 C   0  0  0  0  0  0  0  0  0  0  0  0
   -2.6450   39.4310   21.6270 C   0  0  0  0  0  0  0  0  0  0  0  0
   -2.0000   39.2010   20.4000 O   0  0  0  0  0  0  0  0  0  0  0  0
   -1.0450   39.5320   20.3250 H   0  0  0  0  0  0  0  0  0  0  0  0
   -5.0520   39.9840   21.3170 C   0  0  0  0  0  0  0  0  0  0  0  0
   -5.6050   40.9600   20.5200 C   0  0  0  0  0  3  0  0  0  0  0  0
   -6.8100   40.7780   19.8660 C   0  0  0  0  0  3  0  0  0  0  0  0
   -7.4950   39.5970   20.0010 C   0  0  0  0  0  3  0  0  0  0  0  0
   -6.9380   38.6210   20.8010 C   0  0  0  0  0  3  0  0  0  0  0  0
   -5.7320   38.8120   21.4510 C   0  0  0  0  0  3  0  0  0  0  0  0
   -1.6640   36.6260   22.9500 C   0  0  0  0  0  0  0  0  0  0  0  0
   -0.6570   35.6970   23.0920 C   0  0  0  0  0  3  0  0  0  0  0  0
   -0.7560   34.4090   22.6360 C   0  0  0  0  0  3  0  0  0  0  0  0
   -1.9080   34.0100   22.0080 C   0  0  0  0  0  3  0  0  0  0  0  0
   -2.9260   34.9300   21.8580 C   0  0  0  0  0  3  0  0  0  0  0  0
   -2.8300   36.2330   22.3170 C   0  0  0  0  0  3  0  0  0  0  0  0
 22 23  1  0
 22 21  2  0
 23 24  2  0
 19 18  1  0
 18 17  1  0
 21 20  1  0
 24 25  1  0
  9  8  2  0
  9 10  1  0
 20 25  2  0
 20 13  1  0
  8  7  1  0
 17 13  1  0
 17 16  2  0
 30 29  2  0
 30 31  1  0
 13 12  1  1
 13 14  1  0
 29 28  1  0
 11 10  2  0
 11  2  1  0
 31 26  2  0
 10  5  1  0
  7  6  2  0
 28 27  2  0
 16 14  1  0
 16  1  1  0
 26 27  1  0
 26  1  1  0
 14 15  2  0
  2  1  1  0
  2  3  2  0
  5  6  1  0
  5  4  2  0
  3  4  1  0
M  RAD  8   1   2   3   2   4   2   6   2   7   2   8   2   9   2  11   2
M  RAD  8  12   2  21   2  22   2  23   2  24   2  25   2  27   2  28   2
M  RAD  3  29   2  30   2  31   2
M  END
>  <_TriposChargeType>  (1) 
GASTEIGER

>  <SuCOS_score>  (1) 
0.293062996979318

>  <Volume_score>  (1) 
0.43663683570876144

>  <Feature_score>  (1) 
0.1494891582498745

$$$$
