DOCK.F36.P3s0n/L1008_ligand.pdbt
     RDKit          3D

 32 36  0  0  0  0  0  0  0  0999 V2000
   -2.4840   38.1420   22.5980 C   0  0  0  0  0  3  0  0  0  0  0  0
    4.8500   39.4000   23.6860 C   0  0  0  0  0  1  0  0  0  0  0  0
    3.5440   39.5260   22.9690 C   0  0  0  0  0  0  0  0  0  0  0  0
    3.4940   40.2800   21.8190 C   0  0  0  0  0  3  0  0  0  0  0  0
    2.2710   40.3770   21.1780 C   0  0  0  0  0  3  0  0  0  0  0  0
    1.1490   39.7330   21.6900 C   0  0  0  0  0  0  0  0  0  0  0  0
   -0.4790   39.6250   21.1920 S   0  0  0  0  0  0  0  0  0  0  0  0
   -1.0910   38.6330   22.4320 C   0  0  0  0  0  0  0  0  0  0  0  0
    0.0150   38.4090   23.2140 C   0  0  0  0  0  0  0  0  0  0  0  0
   -0.1420   37.5360   24.4590 C   0  0  0  0  0  1  0  0  0  0  0  0
    1.1710   38.9770   22.8310 C   0  0  0  0  0  0  0  0  0  0  0  0
    2.4300   38.9020   23.4520 C   0  0  0  0  0  3  0  0  0  0  0  0
   -3.5030   39.2130   22.4300 C   0  0  0  0  0  0  0  0  0  0  0  0
   -3.7920   40.1600   21.5960 C   0  0  0  0  0  0  0  0  0  0  0  0
   -3.2000   40.6000   20.4000 O   0  0  0  0  0  0  0  0  0  0  0  0
   -4.9490   40.6150   22.3330 C   0  0  1  0  0  0  0  0  0  0  0  0
   -6.2990   40.3500   21.6930 C   0  0  0  0  0  1  0  0  0  0  0  0
   -4.6230   39.5560   23.2640 C   0  0  0  0  0  0  0  0  0  0  0  0
   -5.1360   39.1320   24.3620 O   0  0  0  0  0  0  0  0  0  0  0  0
   -3.6140   40.2580   19.5430 H   0  0  0  0  0  0  0  0  0  0  0  0
   -4.8400   41.9500   22.9660 C   0  0  0  0  0  0  0  0  0  0  0  0
   -4.4970   42.1170   24.2860 C   0  0  0  0  0  3  0  0  0  0  0  0
   -4.3990   43.3690   24.8720 C   0  0  0  0  0  3  0  0  0  0  0  0
   -4.6500   44.4820   24.1210 C   0  0  0  0  0  3  0  0  0  0  0  0
   -4.9950   44.3290   22.7960 C   0  0  0  0  0  3  0  0  0  0  0  0
   -5.0920   43.0720   22.2120 C   0  0  0  0  0  3  0  0  0  0  0  0
   -2.7260   37.1290   21.5350 C   0  0  0  0  0  0  0  0  0  0  0  0
   -1.7450   36.7650   20.6370 C   0  0  0  0  0  3  0  0  0  0  0  0
   -2.0230   35.8360   19.6860 C   0  0  0  0  0  3  0  0  0  0  0  0
   -3.2470   35.2560   19.5960 C   0  0  0  0  0  3  0  0  0  0  0  0
   -4.2360   35.6290   20.5090 C   0  0  0  0  0  3  0  0  0  0  0  0
   -3.9890   36.5660   21.4850 C   0  0  0  0  0  3  0  0  0  0  0  0
 20 15  1  0
 30 29  1  0
 30 31  2  0
 29 28  2  0
 15 14  1  0
 31 32  1  0
 28 27  1  0
  5  6  2  0
  5  4  1  0
  7  6  1  0
  7  8  1  0
 32 27  2  0
 27  1  1  0
 14 16  1  0
 14 13  2  0
  6 11  1  0
 16 17  1  6
  4  3  2  0
 26 25  2  0
 26 21  1  0
 16 21  1  0
 16 18  1  0
 13  1  1  0
 13 18  1  0
  8  1  1  0
  8  9  2  0
 25 24  1  0
 11  9  1  0
 11 12  2  0
 21 22  2  0
  3 12  1  0
  3  2  1  0
  9 10  1  0
 18 19  2  0
 24 23  2  0
 22 23  1  0
M  RAD  8   1   2   2   2   4   2   5   2  10   2  12   2  17   2  22   2
M  RAD  8  23   2  24   2  25   2  26   2  28   2  29   2  30   2  31   2
M  RAD  1  32   2
M  END
>  <_TriposChargeType>  (1) 
GASTEIGER

>  <SuCOS_score>  (1) 
0.3626235897766057

>  <Volume_score>  (1) 
0.5208264280190034

>  <Feature_score>  (1) 
0.20442075153420797

$$$$
