DOCK.F36.P3s0n/L1011_ligand.pdbt
     RDKit          3D

 30 33  0  0  0  0  0  0  0  0999 V2000
   -4.2370   38.7900   21.6430 C   0  0  0  0  0  0  0  0  0  0  0  0
   -3.0880   39.5710   21.6930 C   0  0  0  0  0  0  0  0  0  0  0  0
   -2.0520   38.8210   21.2010 N   0  0  0  0  0  4  0  0  0  0  0  0
   -2.5040   37.6060   20.8400 C   0  0  0  0  0  0  0  0  0  0  0  0
   -1.9100   36.4830   20.2890 C   0  0  0  0  0  3  0  0  0  0  0  0
   -2.6170   35.3330   19.9980 C   0  0  0  0  0  3  0  0  0  0  0  0
   -3.9690   35.3350   20.2840 C   0  0  0  0  0  0  0  0  0  0  0  0
   -4.6720   34.2090   20.0090 F   0  0  0  0  0  0  0  0  0  0  0  0
   -4.5710   36.4370   20.8300 C   0  0  0  0  0  3  0  0  0  0  0  0
   -3.8470   37.5780   21.1100 C   0  0  0  0  0  0  0  0  0  0  0  0
   -3.1030   40.9480   22.1480 C   0  0  0  0  0  0  0  0  0  0  0  0
   -3.5940   41.2530   23.2820 O   0  0  0  0  0  1  0  0  0  0  0  0
   -2.6000   42.0000   21.4000 O   0  0  0  0  0  0  0  0  0  0  0  0
   -5.6200   39.1580   22.0350 C   0  0  0  0  0  2  0  0  0  0  0  0
   -7.6210   40.8020   19.1740 C   0  0  0  0  0  1  0  0  0  0  0  0
   -6.7360   40.7020   20.3300 N   0  0  0  0  0  0  0  0  0  0  0  0
   -6.1900   41.9220   20.8390 C   0  0  0  0  0  1  0  0  0  0  0  0
   -6.4710   39.4300   20.8670 C   0  0  0  0  0  0  0  0  0  0  0  0
   -7.0020   38.4080   20.3140 O   0  0  0  0  0  0  0  0  0  0  0  0
   -0.6920   39.3090   21.1650 C   0  0  0  0  0  2  0  0  0  0  0  0
   -0.0020   38.9590   22.4330 C   0  0  0  0  0  0  0  0  0  0  0  0
   -0.6950   38.2710   23.4250 C   0  0  0  0  0  3  0  0  0  0  0  0
   -0.0480   37.8240   24.5680 C   0  0  0  0  0  3  0  0  0  0  0  0
    1.2920   38.0650   24.7180 C   0  0  0  0  0  3  0  0  0  0  0  0
    2.0270   38.7390   23.7750 C   0  0  0  0  0  0  0  0  0  0  0  0
    3.3840   39.0000   24.0010 C   0  0  0  0  0  3  0  0  0  0  0  0
    4.0630   39.7260   23.0460 C   0  0  0  0  0  3  0  0  0  0  0  0
    3.4710   40.1900   21.9080 C   0  0  0  0  0  3  0  0  0  0  0  0
    2.1040   39.8990   21.7280 C   0  0  0  0  0  3  0  0  0  0  0  0
    1.3650   39.1820   22.6360 C   0  0  0  0  0  0  0  0  0  0  0  0
 15 16  1  0
  6  7  2  0
  6  5  1  0
  8  7  1  0
  7  9  1  0
  5  4  2  0
 19 18  2  0
 16 17  1  0
 16 18  1  0
  9 10  2  0
  4 10  1  0
  4  3  1  0
 18 14  1  0
 10  1  1  0
 20  3  1  0
 20 21  1  0
  3  2  1  0
 13 11  2  0
  1  2  2  0
  1 14  1  0
  2 11  1  0
 29 28  1  0
 29 30  2  0
 28 27  2  0
 11 12  1  0
 21 30  1  0
 21 22  2  0
 30 25  1  0
 27 26  1  0
 22 23  1  0
 25 26  2  0
 25 24  1  0
 23 24  2  0
M  RAD  8   5   2   6   2   9   2  14   3  15   2  17   2  20   3  22   2
M  CHG  2   3   1  12  -1
M  RAD  6  23   2  24   2  26   2  27   2  28   2  29   2
M  END
>  <_TriposChargeType>  (1) 
GASTEIGER

>  <SuCOS_score>  (1) 
0.35307961894847784

>  <Volume_score>  (1) 
0.5197215777262181

>  <Feature_score>  (1) 
0.18643766017073765

$$$$
