DOCK.F36.P3s0n/L1016_ligand.pdbt
     RDKit          3D

 29 32  0  0  0  0  0  0  0  0999 V2000
   -4.3460   38.8560   21.6830 C   0  0  0  0  0  0  0  0  0  0  0  0
   -3.1930   39.6500   21.7940 C   0  0  0  0  0  0  0  0  0  0  0  0
   -2.1410   38.9660   21.3960 N   0  0  0  0  0  4  0  0  0  0  0  0
   -2.6210   37.6870   21.0190 C   0  0  0  0  0  0  0  0  0  0  0  0
   -1.9980   36.5750   20.5330 C   0  0  0  0  0  3  0  0  0  0  0  0
   -2.6760   35.4300   20.2260 C   0  0  0  0  0  3  0  0  0  0  0  0
   -4.0430   35.3910   20.4140 C   0  0  0  0  0  3  0  0  0  0  0  0
   -4.7130   36.4820   20.8990 C   0  0  0  0  0  3  0  0  0  0  0  0
   -3.9730   37.6350   21.1990 C   0  0  0  0  0  0  0  0  0  0  0  0
   -3.2310   41.0250   22.2780 C   0  0  0  0  0  0  0  0  0  0  0  0
   -2.8000   42.0000   21.6320 O   0  0  0  0  0  1  0  0  0  0  0  0
   -3.7720   41.3080   23.5210 O   0  0  0  0  0  0  0  0  0  0  0  0
   -5.7340   39.2330   22.0280 C   0  0  0  0  0  2  0  0  0  0  0  0
   -7.6020   40.8000   19.0290 C   0  0  0  0  0  1  0  0  0  0  0  0
   -6.7970   40.6620   20.2190 N   0  0  0  0  0  0  0  0  0  0  0  0
   -6.2070   41.8190   20.8280 C   0  0  0  0  0  1  0  0  0  0  0  0
   -6.5650   39.3920   20.8000 C   0  0  0  0  0  0  0  0  0  0  0  0
   -7.0590   38.3520   20.2860 O   0  0  0  0  0  0  0  0  0  0  0  0
   -0.7670   39.2240   21.2000 C   0  0  0  0  0  2  0  0  0  0  0  0
    0.1780   38.8860   22.3300 C   0  0  0  0  0  0  0  0  0  0  0  0
   -0.3350   38.2800   23.4480 C   0  0  0  0  0  3  0  0  0  0  0  0
    0.9950   38.2110   24.5060 S   0  0  0  0  0  0  0  0  0  0  0  0
    2.1770   38.9410   23.5250 C   0  0  0  0  0  0  0  0  0  0  0  0
    3.5450   39.1960   23.7000 C   0  0  0  0  0  3  0  0  0  0  0  0
    4.2910   39.7580   22.6940 C   0  0  0  0  0  3  0  0  0  0  0  0
    3.6180   40.0470   21.5380 C   0  0  0  0  0  0  0  0  0  0  0  0
    4.3360   40.6070   20.5270 F   0  0  0  0  0  0  0  0  0  0  0  0
    2.2880   39.8070   21.3530 C   0  0  0  0  0  3  0  0  0  0  0  0
    1.4940   39.2300   22.3730 C   0  0  0  0  0  0  0  0  0  0  0  0
 14 15  1  0
 15 17  1  0
 15 16  1  0
  6  7  2  0
  6  5  1  0
 18 17  2  0
  7  8  1  0
 27 26  1  0
  5  4  2  0
 17 13  1  0
  8  9  2  0
  4  9  1  0
  4  3  1  0
  9  1  1  0
 19  3  1  0
 19 20  1  0
 28 26  1  0
 28 29  2  0
  3  2  1  0
 26 25  2  0
 11 10  1  0
  1  2  2  0
  1 13  1  0
  2 10  1  0
 10 12  2  0
 20 29  1  0
 20 21  2  0
 29 23  1  0
 25 24  1  0
 21 22  1  0
 23 24  2  0
 23 22  1  0
M  RAD  8   5   2   6   2   7   2   8   2  13   3  14   2  16   2  19   3
M  CHG  2   3   1  11  -1
M  RAD  4  21   2  24   2  25   2  28   2
M  END
>  <_TriposChargeType>  (1) 
GASTEIGER

>  <SuCOS_score>  (1) 
0.34262954082695346

>  <Volume_score>  (1) 
0.5246934040437521

>  <Feature_score>  (1) 
0.16056567761015483

$$$$
