DOCK.F36.P3s0n/L1013_ligand.pdbt
     RDKit          3D

 27 30  0  0  0  0  0  0  0  0999 V2000
   -4.3190   38.9400   21.7110 N   0  0  0  0  0  4  0  0  0  0  0  0
   -3.1950   39.7020   21.8460 C   0  0  0  0  0  0  0  0  0  0  0  0
   -2.0820   39.0140   21.4220 C   0  0  0  0  0  0  0  0  0  0  0  0
   -2.5990   37.7640   21.0110 C   0  0  0  0  0  0  0  0  0  0  0  0
   -1.9970   36.6500   20.4680 C   0  0  0  0  0  3  0  0  0  0  0  0
   -2.7390   35.5390   20.1190 C   0  0  0  0  0  3  0  0  0  0  0  0
   -4.0970   35.5390   20.3160 C   0  0  0  0  0  3  0  0  0  0  0  0
   -4.7150   36.6390   20.8550 C   0  0  0  0  0  3  0  0  0  0  0  0
   -3.9410   37.7630   21.2010 C   0  0  0  0  0  0  0  0  0  0  0  0
   -3.2710   41.0730   22.3530 C   0  0  0  0  0  0  0  0  0  0  0  0
   -2.8000   42.0000   21.6010 O   0  0  0  0  0  1  0  0  0  0  0  0
   -3.8010   41.4470   23.5680 O   0  0  0  0  0  0  0  0  0  0  0  0
   -5.7010   39.2650   22.0430 C   0  0  0  0  0  2  0  0  0  0  0  0
   -6.4550   39.7410   20.8270 C   0  0  0  0  0  2  0  0  0  0  0  0
   -6.4020   42.0540   21.0020 C   0  0  0  0  0  1  0  0  0  0  0  0
   -6.0140   40.9220   20.2960 O   0  0  0  0  0  0  0  0  0  0  0  0
   -0.6750   39.4210   21.3030 C   0  0  0  0  0  2  0  0  0  0  0  0
    0.3110   39.1260   22.2890 C   0  0  0  0  0  0  0  0  0  0  0  0
   -0.0520   38.5630   23.5300 C   0  0  0  0  0  3  0  0  0  0  0  0
    0.8150   38.3090   24.5420 C   0  0  0  0  0  3  0  0  0  0  0  0
    2.1400   38.6010   24.4010 C   0  0  0  0  0  3  0  0  0  0  0  0
    2.5650   39.1510   23.2200 C   0  0  0  0  0  0  0  0  0  0  0  0
    3.9100   39.4630   23.0640 C   0  0  0  0  0  3  0  0  0  0  0  0
    4.3970   40.0280   21.8980 C   0  0  0  0  0  3  0  0  0  0  0  0
    3.5110   40.2740   20.8990 C   0  0  0  0  0  3  0  0  0  0  0  0
    2.1880   39.9620   21.0670 C   0  0  0  0  0  3  0  0  0  0  0  0
    1.6490   39.4020   22.1950 C   0  0  0  0  0  0  0  0  0  0  0  0
  6  7  2  0
  6  5  1  0
 16 14  1  0
 16 15  1  0
  7  8  1  0
  5  4  2  0
 14 13  1  0
  8  9  2  0
 25 26  1  0
 25 24  2  0
  4  9  1  0
  4  3  1  0
 26 27  2  0
  9  1  1  0
 17  3  1  0
 17 18  1  0
  3  2  2  0
 11 10  1  0
  1  2  1  0
  1 13  1  0
  2 10  1  0
 24 23  1  0
 27 18  1  0
 27 22  1  0
 18 19  2  0
 10 12  2  0
 23 22  2  0
 22 21  1  0
 19 20  1  0
 21 20  2  0
M  RAD  8   5   2   6   2   7   2   8   2  13   3  14   3  15   2  17   3
M  CHG  2   1   1  11  -1
M  RAD  7  19   2  20   2  21   2  23   2  24   2  25   2  26   2
M  END
>  <_TriposChargeType>  (1) 
GASTEIGER

>  <SuCOS_score>  (1) 
0.3547492499669443

>  <Volume_score>  (1) 
0.5019334880123743

>  <Feature_score>  (1) 
0.2075650119215143

$$$$
