DOCK.F10.P4kp0/L1003_ligand.pdbt
     RDKit          3D

 32 35  0  0  0  0  0  0  0  0999 V2000
   -4.1590   39.5680   22.7920 N   0  0  0  0  0  0  0  0  0  0  0  0
   -4.7260   39.1990   21.9670 H   0  0  0  0  0  0  0  0  0  0  0  0
   -4.4660   40.8530   23.2370 C   0  0  0  0  0  0  0  0  0  0  0  0
   -4.6000   41.1750   24.5790 C   0  0  0  0  0  3  0  0  0  0  0  0
   -4.9150   42.4580   24.9970 C   0  0  0  0  0  3  0  0  0  0  0  0
   -5.1080   43.4680   24.0820 C   0  0  0  0  0  0  0  0  0  0  0  0
   -4.9790   43.1670   22.7490 C   0  0  0  0  0  3  0  0  0  0  0  0
   -4.6630   41.8770   22.3360 C   0  0  0  0  0  0  0  0  0  0  0  0
   -5.4400   44.8340   24.4600 C   0  0  0  0  0  0  0  0  0  0  0  0
   -4.5970   45.5930   25.2550 C   0  0  0  0  0  3  0  0  0  0  0  0
   -4.8820   46.8880   25.6300 C   0  0  0  0  0  3  0  0  0  0  0  0
   -6.0440   47.4450   25.2000 N   0  0  0  0  0  0  0  0  0  0  0  0
   -6.8770   46.7320   24.4310 C   0  0  0  0  0  3  0  0  0  0  0  0
   -6.6100   45.4360   24.0440 C   0  0  0  0  0  3  0  0  0  0  0  0
   -4.5570   41.6620   20.8830 C   0  0  2  0  0  0  0  0  0  0  0  0
   -3.8000   42.5980   20.2360 F   0  0  0  0  0  0  0  0  0  0  0  0
   -5.8540   41.6010   20.3500 F   0  0  0  0  0  0  0  0  0  0  0  0
   -4.0000   40.4320   20.5980 F   0  0  0  0  0  0  0  0  0  0  0  0
   -2.9780   38.5000   23.4100 S   0  0  1  0  0  6  0  0  0  0  0  0
   -3.0710   38.4060   24.9170 O   0  0  0  0  0  0  0  0  0  0  0  0
   -3.2390   37.0780   22.9240 O   0  0  0  0  0  0  0  0  0  0  0  0
    0.0070   37.6760   24.5880 C   0  0  0  0  0  1  0  0  0  0  0  0
   -0.1210   38.6130   23.3950 C   0  0  0  0  0  0  0  0  0  0  0  0
   -1.3540   38.9270   22.9270 C   0  0  0  0  0  0  0  0  0  0  0  0
   -1.0100   39.9700   21.6060 S   0  0  0  0  0  0  0  0  0  0  0  0
    0.6890   39.9700   21.6950 C   0  0  0  0  0  0  0  0  0  0  0  0
    1.6750   40.6020   20.9360 C   0  0  0  0  0  3  0  0  0  0  0  0
    3.0100   40.4270   21.2310 C   0  0  0  0  0  3  0  0  0  0  0  0
    3.2740   39.6010   22.3040 C   0  0  0  0  0  0  0  0  0  0  0  0
    4.5960   39.4210   22.6040 F   0  0  0  0  0  0  0  0  0  0  0  0
    2.3150   38.9780   23.0530 C   0  0  0  0  0  3  0  0  0  0  0  0
    0.9490   39.1550   22.7550 C   0  0  0  0  0  0  0  0  0  0  0  0
 15 16  1  6
 17 15  1  0
 18 15  1  0
 15  8  1  0
 27 28  2  0
 27 26  1  0
 28 29  1  0
 25 26  1  0
 25 24  1  0
 26 32  2  0
  2  1  1  0
 29 30  1  0
 29 31  2  0
  8  7  2  0
  8  3  1  0
  7  6  1  0
 32 31  1  0
 32 23  1  0
  1  3  1  0
 19  1  1  6
 21 19  2  0
 24 23  2  0
 24 19  1  0
  3  4  2  0
 23 22  1  0
 19 20  2  0
 14 13  2  0
 14  9  1  0
  6  9  1  0
  6  5  2  0
 13 12  1  0
  9 10  2  0
  4  5  1  0
 12 11  2  0
 10 11  1  0
M  RAD  8   4   2   5   2   7   2  10   2  11   2  13   2  14   2  22   2
M  RAD  3  27   2  28   2  31   2
M  END
>  <_TriposChargeType>  (1) 
GASTEIGER

>  <SuCOS_score>  (1) 
0.3251625915426657

>  <Volume_score>  (1) 
0.44304496740691635

>  <Feature_score>  (1) 
0.20728021567841498

$$$$
