DOCK.F10.P4kp0/L1007_ligand.pdbt
     RDKit          3D

 31 35  0  0  0  0  0  0  0  0999 V2000
   -2.6220   38.6170   22.4720 C   0  0  0  0  0  3  0  0  0  0  0  0
   -1.1840   38.8610   22.5290 C   0  0  0  0  0  0  0  0  0  0  0  0
   -0.5160   38.4020   23.6780 C   0  0  0  0  0  3  0  0  0  0  0  0
    0.8300   38.5590   23.8760 C   0  0  0  0  0  3  0  0  0  0  0  0
    1.5730   39.1960   22.9080 C   0  0  0  0  0  0  0  0  0  0  0  0
    2.9430   39.3640   23.0930 C   0  0  0  0  0  3  0  0  0  0  0  0
    3.6790   40.0000   22.1250 C   0  0  0  0  0  3  0  0  0  0  0  0
    3.0280   40.4500   21.0010 C   0  0  0  0  0  3  0  0  0  0  0  0
    1.6810   40.2880   20.8130 C   0  0  0  0  0  3  0  0  0  0  0  0
    0.9150   39.6470   21.7780 C   0  0  0  0  0  0  0  0  0  0  0  0
   -0.4400   39.4870   21.5830 C   0  0  0  0  0  3  0  0  0  0  0  0
   -5.5660   41.5420   20.7570 C   0  0  0  0  0  1  0  0  0  0  0  0
   -4.6670   41.4390   21.9990 C   0  0  2  0  0  0  0  0  0  0  0  0
   -3.3090   41.1190   21.6490 C   0  0  0  0  0  0  0  0  0  0  0  0
   -2.3990   41.7350   21.0610 O   0  0  0  0  0  0  0  0  0  0  0  0
   -3.4690   39.8300   22.2520 C   0  0  0  0  0  0  0  0  0  0  0  0
   -4.7100   40.1200   22.5720 C   0  0  0  0  0  0  0  0  0  0  0  0
   -5.7370   39.4250   23.2330 O   0  0  0  0  0  0  0  0  0  0  0  0
   -6.1130   38.6150   22.7520 H   0  0  0  0  0  0  0  0  0  0  0  0
   -4.8840   42.5780   22.9210 C   0  0  0  0  0  0  0  0  0  0  0  0
   -5.4020   43.7420   22.4000 C   0  0  0  0  0  3  0  0  0  0  0  0
   -5.6370   44.8560   23.1850 C   0  0  0  0  0  3  0  0  0  0  0  0
   -5.3540   44.8260   24.5270 C   0  0  0  0  0  3  0  0  0  0  0  0
   -4.8350   43.6580   25.0460 C   0  0  0  0  0  3  0  0  0  0  0  0
   -4.6030   42.5480   24.2530 C   0  0  0  0  0  3  0  0  0  0  0  0
   -2.9050   37.5120   21.5410 C   0  0  0  0  0  0  0  0  0  0  0  0
   -4.1790   37.0110   21.3920 C   0  0  0  0  0  3  0  0  0  0  0  0
   -4.4840   35.9760   20.5490 C   0  0  0  0  0  3  0  0  0  0  0  0
   -3.4820   35.4000   19.8100 C   0  0  0  0  0  3  0  0  0  0  0  0
   -2.2000   35.8910   19.9480 C   0  0  0  0  0  3  0  0  0  0  0  0
   -1.8870   36.9370   20.8000 C   0  0  0  0  0  3  0  0  0  0  0  0
 29 30  2  0
 29 28  1  0
 30 31  1  0
 28 27  2  0
 13 12  1  6
 31 26  2  0
  9  8  2  0
  9 10  1  0
  8  7  1  0
 15 14  2  0
 27 26  1  0
 26  1  1  0
 11 10  2  0
 11  2  1  0
 14 13  1  0
 14 16  1  0
 10  5  1  0
 13 17  1  0
 13 20  1  0
  7  6  2  0
 16  1  1  0
 16 17  2  0
 21 20  2  0
 21 22  1  0
  1  2  1  0
  2  3  2  0
 17 18  1  0
 19 18  1  0
  5  6  1  0
  5  4  2  0
 20 25  1  0
 22 23  2  0
  3  4  1  0
 25 24  2  0
 23 24  1  0
M  RAD  8   1   2   3   2   4   2   6   2   7   2   8   2   9   2  11   2
M  RAD  8  12   2  21   2  22   2  23   2  24   2  25   2  27   2  28   2
M  RAD  3  29   2  30   2  31   2
M  END
>  <_TriposChargeType>  (1) 
GASTEIGER

>  <SuCOS_score>  (1) 
0.3567381947628925

>  <Volume_score>  (1) 
0.5306595956247928

>  <Feature_score>  (1) 
0.18281679390099212

$$$$
