DOCK.F10.P4kp0/L1016_ligand.pdbt
     RDKit          3D

 29 32  0  0  0  0  0  0  0  0999 V2000
   -4.2850   38.9440   21.4670 C   0  0  0  0  0  0  0  0  0  0  0  0
   -3.1630   39.7860   21.5400 C   0  0  0  0  0  0  0  0  0  0  0  0
   -2.0670   39.0870   21.3310 N   0  0  0  0  0  4  0  0  0  0  0  0
   -2.4860   37.7500   21.1200 C   0  0  0  0  0  0  0  0  0  0  0  0
   -1.8000   36.6000   20.8580 C   0  0  0  0  0  3  0  0  0  0  0  0
   -2.4250   35.3990   20.6810 C   0  0  0  0  0  3  0  0  0  0  0  0
   -3.8010   35.3400   20.7700 C   0  0  0  0  0  3  0  0  0  0  0  0
   -4.5320   36.4680   21.0310 C   0  0  0  0  0  3  0  0  0  0  0  0
   -3.8460   37.6780   21.2050 C   0  0  0  0  0  0  0  0  0  0  0  0
   -3.2720   41.2160   21.8040 C   0  0  0  0  0  0  0  0  0  0  0  0
   -3.6000   41.6940   22.9080 O   0  0  0  0  0  1  0  0  0  0  0  0
   -3.0000   42.1300   20.8000 O   0  0  0  0  0  0  0  0  0  0  0  0
   -5.7040   39.3190   21.6460 C   0  0  0  0  0  2  0  0  0  0  0  0
   -7.1120   40.2250   25.1280 C   0  0  0  0  0  1  0  0  0  0  0  0
   -6.7310   40.3200   23.7390 N   0  0  0  0  0  0  0  0  0  0  0  0
   -6.9960   41.5200   23.0010 C   0  0  0  0  0  1  0  0  0  0  0  0
   -6.1020   39.2370   23.0800 C   0  0  0  0  0  0  0  0  0  0  0  0
   -5.8640   38.1630   23.6950 O   0  0  0  0  0  0  0  0  0  0  0  0
   -0.6890   39.3610   21.2000 C   0  0  0  0  0  2  0  0  0  0  0  0
    0.2140   38.9780   22.3500 C   0  0  0  0  0  0  0  0  0  0  0  0
   -0.3540   38.4180   23.4650 C   0  0  0  0  0  3  0  0  0  0  0  0
    0.9510   38.2800   24.5470 S   0  0  0  0  0  0  0  0  0  0  0  0
    2.1920   38.9250   23.5800 C   0  0  0  0  0  0  0  0  0  0  0  0
    3.5700   39.0960   23.7770 C   0  0  0  0  0  3  0  0  0  0  0  0
    4.3670   39.6000   22.7780 C   0  0  0  0  0  3  0  0  0  0  0  0
    3.7330   39.9160   21.6070 C   0  0  0  0  0  0  0  0  0  0  0  0
    4.5010   40.4190   20.6030 F   0  0  0  0  0  0  0  0  0  0  0  0
    2.3940   39.7560   21.4010 C   0  0  0  0  0  3  0  0  0  0  0  0
    1.5480   39.2420   22.4130 C   0  0  0  0  0  0  0  0  0  0  0  0
 27 26  1  0
  6  7  2  0
  6  5  1  0
  7  8  1  0
 12 10  2  0
  5  4  2  0
  8  9  2  0
  4  9  1  0
  4  3  1  0
 19  3  1  0
 19 20  1  0
  9  1  1  0
  3  2  1  0
 28 26  1  0
 28 29  2  0
  1  2  2  0
  1 13  1  0
  2 10  1  0
 26 25  2  0
 13 17  1  0
 10 11  1  0
 20 29  1  0
 20 21  2  0
 29 23  1  0
 25 24  1  0
 16 15  1  0
 17 18  2  0
 17 15  1  0
 21 22  1  0
 23 24  2  0
 23 22  1  0
 15 14  1  0
M  RAD  8   5   2   6   2   7   2   8   2  13   3  14   2  16   2  19   3
M  CHG  2   3   1  11  -1
M  RAD  4  21   2  24   2  25   2  28   2
M  END
>  <_TriposChargeType>  (1) 
GASTEIGER

>  <SuCOS_score>  (1) 
0.3301850065454403

>  <Volume_score>  (1) 
0.4957463263727765

>  <Feature_score>  (1) 
0.16462368671810412

$$$$
