DOCK.F10.P4kp0/L1012_ligand.pdbt
     RDKit          3D

 30 32  0  0  0  0  0  0  0  0999 V2000
   -4.0020   39.1730   22.9240 N   0  0  0  0  0  0  0  0  0  0  0  0
   -4.5770   38.8180   22.1200 H   0  0  0  0  0  0  0  0  0  0  0  0
   -4.9760   42.8900   24.6100 C   0  0  0  0  0  0  0  0  0  0  0  0
   -4.8010   41.8020   25.4380 C   0  0  0  0  0  3  0  0  0  0  0  0
   -4.4760   40.5750   24.8700 C   0  0  0  0  0  3  0  0  0  0  0  0
   -4.3240   40.4100   23.5160 C   0  0  0  0  0  0  0  0  0  0  0  0
   -4.5040   41.5100   22.7080 C   0  0  0  0  0  0  0  0  0  0  0  0
   -4.8270   42.7470   23.2290 C   0  0  0  0  0  3  0  0  0  0  0  0
   -4.3200   41.3430   20.9780 S   0  0  2  0  0  6  0  0  0  0  0  0
   -5.8970   41.0000   20.2190 C   0  0  0  0  0  1  0  0  0  0  0  0
   -3.4260   40.1660   20.6340 O   0  0  0  0  0  0  0  0  0  0  0  0
   -3.7990   42.6020   20.3580 O   0  0  0  0  0  0  0  0  0  0  0  0
   -5.3180   44.1920   25.1700 C   0  0  0  0  0  0  0  0  0  0  0  0
   -4.8120   44.5850   26.2490 O   0  0  0  0  0  0  0  0  0  0  0  0
   -5.7520   45.9980   23.6020 C   0  0  0  0  0  1  0  0  0  0  0  0
   -6.2080   45.0110   24.5130 O   0  0  0  0  0  0  0  0  0  0  0  0
   -2.6980   38.2450   23.4890 S   0  0  2  0  0  6  0  0  0  0  0  0
   -2.8150   36.8210   23.0220 O   0  0  0  0  0  0  0  0  0  0  0  0
   -2.7510   38.1910   24.9980 O   0  0  0  0  0  0  0  0  0  0  0  0
   -1.1310   38.8130   22.9480 C   0  0  0  0  0  0  0  0  0  0  0  0
   -0.8090   39.8530   21.6430 S   0  0  0  0  0  0  0  0  0  0  0  0
    0.8910   39.9280   21.7540 C   0  0  0  0  0  0  0  0  0  0  0  0
    1.8780   40.5950   21.0150 C   0  0  0  0  0  3  0  0  0  0  0  0
    3.2170   40.4620   21.3520 C   0  0  0  0  0  3  0  0  0  0  0  0
    3.4770   39.6550   22.4270 C   0  0  0  0  0  0  0  0  0  0  0  0
    4.7980   39.5160   22.7680 F   0  0  0  0  0  0  0  0  0  0  0  0
    2.5350   38.9970   23.1610 C   0  0  0  0  0  3  0  0  0  0  0  0
    1.1660   39.1270   22.8250 C   0  0  0  0  0  0  0  0  0  0  0  0
    0.1140   38.5440   23.4470 C   0  0  0  0  0  0  0  0  0  0  0  0
    0.2120   37.6180   24.6570 C   0  0  0  0  0  1  0  0  0  0  0  0
  9 10  1  6
 12  9  2  0
 11  9  2  0
  9  7  1  0
 23 24  1  0
 23 22  2  0
 24 25  2  0
 21 22  1  0
 21 20  1  0
 22 28  1  0
  2  1  1  0
 25 26  1  0
 25 27  1  0
  7  8  1  0
  7  6  2  0
 28 27  2  0
 28 29  1  0
 17  1  1  6
  1  6  1  0
 20 29  2  0
 20 17  1  0
 18 17  2  0
  8  3  2  0
 29 30  1  0
 17 19  2  0
  6  5  1  0
 15 16  1  0
 16 13  1  0
  3 13  1  0
  3  4  1  0
  5  4  2  0
 13 14  2  0
M  RAD  8   4   2   5   2   8   2  10   2  15   2  23   2  24   2  27   2
M  RAD  1  30   2
M  END
>  <_TriposChargeType>  (1) 
GASTEIGER

>  <SuCOS_score>  (1) 
0.2975040548080373

>  <Volume_score>  (1) 
0.4458070931388797

>  <Feature_score>  (1) 
0.14920101647719491

$$$$
