DOCK.F10.P3s0n/L1009_ligand.pdbt
     RDKit          3D

 34 38  0  0  0  0  0  0  0  0999 V2000
   -2.5440   38.6430   22.6540 C   0  0  0  0  0  3  0  0  0  0  0  0
    0.0560   37.8380   24.3400 C   0  0  0  0  0  1  0  0  0  0  0  0
   -0.0120   38.6750   23.1050 C   0  0  0  0  0  0  0  0  0  0  0  0
   -1.1280   39.0290   22.3780 C   0  0  0  0  0  0  0  0  0  0  0  0
   -0.6610   39.7880   21.3730 N   0  0  0  0  0  0  0  0  0  0  0  0
    0.6630   39.9270   21.4280 C   0  0  0  0  0  0  0  0  0  0  0  0
    1.6060   40.5990   20.6410 C   0  0  0  0  0  3  0  0  0  0  0  0
    2.9350   40.5290   21.0000 C   0  0  0  0  0  3  0  0  0  0  0  0
    3.3820   39.8290   22.0960 C   0  0  0  0  0  0  0  0  0  0  0  0
    4.7140   39.7990   22.4000 F   0  0  0  0  0  0  0  0  0  0  0  0
    2.4530   39.1710   22.8680 C   0  0  0  0  0  3  0  0  0  0  0  0
    1.1090   39.2270   22.5270 C   0  0  0  0  0  0  0  0  0  0  0  0
   -1.2340   40.2420   20.6070 H   0  0  0  0  0  0  0  0  0  0  0  0
   -3.4590   39.8020   22.7030 C   0  0  0  0  0  0  0  0  0  0  0  0
   -4.1890   40.2740   23.6870 C   0  0  0  0  0  0  0  0  0  0  0  0
   -4.2790   39.7630   25.0050 O   0  0  0  0  0  0  0  0  0  0  0  0
   -4.9480   41.4630   23.2470 C   0  0  0  0  0  3  0  0  0  0  0  0
   -4.5860   41.6810   21.9190 O   0  0  0  0  0  0  0  0  0  0  0  0
   -3.6980   40.6940   21.5470 C   0  0  0  0  0  0  0  0  0  0  0  0
   -3.1970   40.6050   20.3980 O   0  0  0  0  0  0  0  0  0  0  0  0
   -5.2290   39.5240   25.2980 H   0  0  0  0  0  0  0  0  0  0  0  0
   -4.5560   42.7060   24.0260 C   0  0  0  0  0  2  0  0  0  0  0  0
   -5.6560   43.7010   23.9490 C   0  0  0  0  0  0  0  0  0  0  0  0
   -5.4060   44.9920   23.5410 C   0  0  0  0  0  3  0  0  0  0  0  0
   -6.4100   45.9460   23.4590 C   0  0  0  0  0  3  0  0  0  0  0  0
   -7.7160   45.6000   23.8000 C   0  0  0  0  0  3  0  0  0  0  0  0
   -7.9500   44.3110   24.2040 C   0  0  0  0  0  3  0  0  0  0  0  0
   -6.9520   43.3650   24.2840 C   0  0  0  0  0  3  0  0  0  0  0  0
   -3.0050   37.5800   21.7440 C   0  0  0  0  0  0  0  0  0  0  0  0
   -4.3430   37.1960   21.6690 C   0  0  0  0  0  3  0  0  0  0  0  0
   -4.7080   36.1920   20.8000 C   0  0  0  0  0  3  0  0  0  0  0  0
   -3.7870   35.5520   20.0000 C   0  0  0  0  0  3  0  0  0  0  0  0
   -2.4470   35.9290   20.0680 C   0  0  0  0  0  3  0  0  0  0  0  0
   -2.1060   36.9220   20.9320 C   0  0  0  0  0  3  0  0  0  0  0  0
 32 33  2  0
 32 31  1  0
 33 34  1  0
 20 19  2  0
 13  5  1  0
  7  8  2  0
  7  6  1  0
 31 30  2  0
 34 29  2  0
  8  9  1  0
  5  6  1  0
  5  4  1  0
  6 12  2  0
 19 18  1  0
 19 14  1  0
 30 29  1  0
 29  1  1  0
 18 17  1  0
  9 10  1  0
  9 11  2  0
  4  1  1  0
  4  3  2  0
 12 11  1  0
 12  3  1  0
  1 14  1  0
 14 15  2  0
  3  2  1  0
 17 15  1  0
 17 22  1  0
 25 24  2  0
 25 26  1  0
 24 23  1  0
 15 16  1  0
 26 27  2  0
 23 22  1  0
 23 28  2  0
 27 28  1  0
 16 21  1  0
M  RAD  8   1   2   2   2   7   2   8   2  11   2  17   2  22   3  24   2
M  RAD  8  25   2  26   2  27   2  28   2  30   2  31   2  32   2  33   2
M  RAD  1  34   2
M  END
>  <_TriposChargeType>  (1) 
GASTEIGER

>  <SuCOS_score>  (1) 
0.29927437950797364

>  <Volume_score>  (1) 
0.4791735719809965

>  <Feature_score>  (1) 
0.1193751870349508

$$$$
