DOCK.F10.P3s0n/L1007_ligand.pdbt
     RDKit          3D

 31 35  0  0  0  0  0  0  0  0999 V2000
   -2.4820   38.6050   22.5030 C   0  0  0  0  0  3  0  0  0  0  0  0
   -1.0440   38.8570   22.5080 C   0  0  0  0  0  0  0  0  0  0  0  0
   -0.3400   38.4430   23.6530 C   0  0  0  0  0  3  0  0  0  0  0  0
    1.0100   38.6120   23.8050 C   0  0  0  0  0  3  0  0  0  0  0  0
    1.7220   39.2170   22.7940 C   0  0  0  0  0  0  0  0  0  0  0  0
    3.0960   39.3960   22.9320 C   0  0  0  0  0  3  0  0  0  0  0  0
    3.8000   40.0000   21.9210 C   0  0  0  0  0  3  0  0  0  0  0  0
    3.1130   40.4060   20.8000 C   0  0  0  0  0  3  0  0  0  0  0  0
    1.7620   40.2320   20.6580 C   0  0  0  0  0  3  0  0  0  0  0  0
    1.0290   39.6230   21.6680 C   0  0  0  0  0  0  0  0  0  0  0  0
   -0.3310   39.4510   21.5190 C   0  0  0  0  0  3  0  0  0  0  0  0
   -5.5350   41.5350   21.0010 C   0  0  0  0  0  1  0  0  0  0  0  0
   -4.5580   41.4250   22.1810 C   0  0  2  0  0  0  0  0  0  0  0  0
   -3.2250   41.1110   21.7420 C   0  0  0  0  0  0  0  0  0  0  0  0
   -2.3560   41.7320   21.1010 O   0  0  0  0  0  0  0  0  0  0  0  0
   -3.3440   39.8170   22.3460 C   0  0  0  0  0  0  0  0  0  0  0  0
   -4.5620   40.1020   22.7470 C   0  0  0  0  0  0  0  0  0  0  0  0
   -5.5430   39.4010   23.4680 O   0  0  0  0  0  0  0  0  0  0  0  0
   -5.9470   38.5930   23.0070 H   0  0  0  0  0  0  0  0  0  0  0  0
   -4.7170   42.5580   23.1230 C   0  0  0  0  0  0  0  0  0  0  0  0
   -5.0000   43.7990   22.6000 C   0  0  0  0  0  3  0  0  0  0  0  0
   -5.1650   44.9140   23.4020 C   0  0  0  0  0  3  0  0  0  0  0  0
   -5.0470   44.8050   24.7650 C   0  0  0  0  0  3  0  0  0  0  0  0
   -4.7630   43.5600   25.2860 C   0  0  0  0  0  3  0  0  0  0  0  0
   -4.6000   42.4500   24.4750 C   0  0  0  0  0  3  0  0  0  0  0  0
   -2.7950   37.5210   21.5570 C   0  0  0  0  0  0  0  0  0  0  0  0
   -4.0630   36.9870   21.4770 C   0  0  0  0  0  3  0  0  0  0  0  0
   -4.3940   35.9690   20.6230 C   0  0  0  0  0  3  0  0  0  0  0  0
   -3.4280   35.4470   19.8000 C   0  0  0  0  0  3  0  0  0  0  0  0
   -2.1540   35.9720   19.8690 C   0  0  0  0  0  3  0  0  0  0  0  0
   -1.8140   37.0000   20.7310 C   0  0  0  0  0  3  0  0  0  0  0  0
 29 30  2  0
 29 28  1  0
 30 31  1  0
 28 27  2  0
  9  8  2  0
  9 10  1  0
 31 26  2  0
  8  7  1  0
 13 12  1  6
 15 14  2  0
 27 26  1  0
 11 10  2  0
 11  2  1  0
 26  1  1  0
 10  5  1  0
 14 13  1  0
 14 16  1  0
  7  6  2  0
 13 17  1  0
 13 20  1  0
 16  1  1  0
 16 17  2  0
  1  2  1  0
  2  3  2  0
 21 20  2  0
 21 22  1  0
 17 18  1  0
  5  6  1  0
  5  4  2  0
 19 18  1  0
 20 25  1  0
 22 23  2  0
  3  4  1  0
 25 24  2  0
 23 24  1  0
M  RAD  8   1   2   3   2   4   2   6   2   7   2   8   2   9   2  11   2
M  RAD  8  12   2  21   2  22   2  23   2  24   2  25   2  27   2  28   2
M  RAD  3  29   2  30   2  31   2
M  END
>  <_TriposChargeType>  (1) 
GASTEIGER

>  <SuCOS_score>  (1) 
0.3422336307981983

>  <Volume_score>  (1) 
0.52259418848746

>  <Feature_score>  (1) 
0.16187307310893664

$$$$
