DOCK.F10.P3s0n/L1004_ligand.pdbt
     RDKit          3D

 33 36  0  0  0  0  0  0  0  0999 V2000
   -2.4820   38.8720   22.5390 C   0  0  0  0  0  3  0  0  0  0  0  0
    0.0260   38.7460   23.1210 C   0  0  0  0  0  0  0  0  0  0  0  0
   -1.0710   39.1540   22.3740 C   0  0  0  0  0  0  0  0  0  0  0  0
   -0.5870   39.8850   21.3290 N   0  0  0  0  0  0  0  0  0  0  0  0
    0.7480   39.9680   21.3600 C   0  0  0  0  0  0  0  0  0  0  0  0
    1.6760   40.5850   20.5420 C   0  0  0  0  0  3  0  0  0  0  0  0
    3.0270   40.5170   20.8110 C   0  0  0  0  0  3  0  0  0  0  0  0
    3.4390   39.8150   21.9230 C   0  0  0  0  0  0  0  0  0  0  0  0
    4.7620   39.7300   22.2050 F   0  0  0  0  0  0  0  0  0  0  0  0
    2.4880   39.2000   22.7350 C   0  0  0  0  0  3  0  0  0  0  0  0
    1.1350   39.2470   22.4950 C   0  0  0  0  0  0  0  0  0  0  0  0
   -1.1540   40.3540   20.5570 H   0  0  0  0  0  0  0  0  0  0  0  0
   -0.2000   36.4900   24.2250 C   0  0  0  0  0  1  0  0  0  0  0  0
   -0.0890   37.9880   24.3500 C   0  0  0  0  0  3  0  0  0  0  0  0
    1.2000   38.1940   25.2000 C   0  0  0  0  0  1  0  0  0  0  0  0
   -3.3420   40.1230   22.5880 C   0  0  0  0  0  0  0  0  0  0  0  0
   -3.5240   41.0380   21.6580 C   0  0  0  0  0  0  0  0  0  0  0  0
   -2.8990   40.9740   20.4000 O   0  0  0  0  0  0  0  0  0  0  0  0
   -4.4470   42.1080   22.1030 C   0  0  0  0  0  3  0  0  0  0  0  0
   -4.7880   41.7590   23.4420 N   0  0  0  0  0  0  0  0  0  0  0  0
   -4.1290   40.5450   23.7420 C   0  0  0  0  0  0  0  0  0  0  0  0
   -4.1710   39.8720   24.8280 O   0  0  0  0  0  0  0  0  0  0  0  0
   -3.4660   40.9890   19.5550 H   0  0  0  0  0  0  0  0  0  0  0  0
   -5.4110   42.3090   24.0680 H   0  0  0  0  0  0  0  0  0  0  0  0
   -5.6500   42.2400   21.2000 C   0  0  0  0  0  3  0  0  0  0  0  0
   -6.2920   40.8880   20.9540 C   0  0  0  0  0  1  0  0  0  0  0  0
   -6.6640   43.1170   21.8860 C   0  0  0  0  0  1  0  0  0  0  0  0
   -3.0850   37.8220   21.7190 C   0  0  0  0  0  0  0  0  0  0  0  0
   -2.3600   36.9980   20.8780 C   0  0  0  0  0  3  0  0  0  0  0  0
   -2.9610   36.0000   20.1350 C   0  0  0  0  0  3  0  0  0  0  0  0
   -4.3200   35.7820   20.2000 C   0  0  0  0  0  3  0  0  0  0  0  0
   -5.0500   36.5960   21.0330 C   0  0  0  0  0  3  0  0  0  0  0  0
   -4.4400   37.5810   21.7640 C   0  0  0  0  0  3  0  0  0  0  0  0
 23 18  1  0
 30 31  1  0
 30 29  2  0
 31 32  2  0
 18 17  1  0
  6  7  2  0
  6  5  1  0
 12  4  1  0
  7  8  1  0
 29 28  1  0
 26 25  1  0
 32 33  1  0
 25 27  1  0
 25 19  1  0
  4  5  1  0
  4  3  1  0
  5 11  2  0
 17 19  1  0
 17 16  2  0
 28 33  2  0
 28  1  1  0
  8  9  1  0
  8 10  2  0
 19 20  1  0
  3  1  1  0
  3  2  2  0
 11 10  1  0
 11  2  1  0
  1 16  1  0
 16 21  1  0
  2 14  1  0
 20 21  1  0
 20 24  1  0
 21 22  2  0
 13 14  1  0
 14 15  1  0
M  RAD  8   1   2   6   2   7   2  10   2  13   2  14   2  15   2  19   2
M  RAD  8  25   2  26   2  27   2  29   2  30   2  31   2  32   2  33   2
M  END
>  <_TriposChargeType>  (1) 
GASTEIGER

>  <SuCOS_score>  (1) 
0.27610473420346665

>  <Volume_score>  (1) 
0.48226715280079546

>  <Feature_score>  (1) 
0.06994231560613785

$$$$
