DOCK.F10.P3s0n/L1006_ligand.pdbt
     RDKit          3D

 42 46  0  0  0  0  0  0  0  0999 V2000
   -3.4910   38.0490   22.1680 C   0  0  0  0  0  3  0  0  0  0  0  0
   -1.1550   38.1180   23.3250 C   0  0  0  0  0  0  0  0  0  0  0  0
   -2.1120   38.4450   22.3540 C   0  0  0  0  0  0  0  0  0  0  0  0
   -1.4250   39.1630   21.4150 N   0  0  0  0  0  0  0  0  0  0  0  0
   -0.1480   39.2900   21.7260 C   0  0  0  0  0  0  0  0  0  0  0  0
    0.8850   39.9290   21.0290 C   0  0  0  0  0  3  0  0  0  0  0  0
    2.1570   39.9220   21.5290 C   0  0  0  0  0  0  0  0  0  0  0  0
    3.2800   40.5990   20.8000 C   0  0  0  0  0  1  0  0  0  0  0  0
    2.3580   39.2720   22.7190 C   0  0  0  0  0  3  0  0  0  0  0  0
    1.3430   38.6450   23.4050 C   0  0  0  0  0  3  0  0  0  0  0  0
    0.0530   38.6410   22.9200 C   0  0  0  0  0  0  0  0  0  0  0  0
   -1.8460   39.5800   20.5320 H   0  0  0  0  0  0  0  0  0  0  0  0
   -1.4540   37.4550   24.5680 C   0  0  0  0  0  2  0  0  0  0  0  0
   -1.1600   35.9870   24.7210 C   0  0  1  0  0  0  0  0  0  0  0  0
   -0.6040   35.4160   23.3970 C   0  0  0  0  0  1  0  0  0  0  0  0
   -0.2000   35.6350   25.8000 C   0  0  0  0  0  1  0  0  0  0  0  0
   -4.4600   34.9260   26.4280 C   0  0  0  0  0  1  0  0  0  0  0  0
   -3.1830   35.6370   26.0870 C   0  0  0  0  0  0  0  0  0  0  0  0
   -2.8040   36.6040   26.7950 O   0  0  0  0  0  0  0  0  0  0  0  0
   -2.4030   35.2080   24.9570 N   0  0  0  0  0  0  0  0  0  0  0  0
   -2.6980   34.4220   24.3680 H   0  0  0  0  0  0  0  0  0  0  0  0
   -4.3400   39.2630   21.8690 C   0  0  0  0  0  0  0  0  0  0  0  0
   -4.2240   40.3580   21.1880 C   0  0  0  0  0  0  0  0  0  0  0  0
   -3.1900   40.8900   20.4000 O   0  0  0  0  0  0  0  0  0  0  0  0
   -5.5590   40.8670   21.5210 C   0  0  1  0  0  0  0  0  0  0  0  0
   -6.5470   40.9580   20.3980 C   0  0  0  0  0  1  0  0  0  0  0  0
   -5.6770   39.6280   22.2880 C   0  0  0  0  0  0  0  0  0  0  0  0
   -6.5640   39.0970   23.0100 O   0  0  0  0  0  0  0  0  0  0  0  0
   -3.3220   40.8200   19.3930 H   0  0  0  0  0  0  0  0  0  0  0  0
   -5.4210   42.1170   22.3320 C   0  0  0  0  0  0  0  0  0  0  0  0
   -4.4110   42.2800   23.2650 C   0  0  0  0  0  3  0  0  0  0  0  0
   -4.3000   43.4480   24.0060 C   0  0  0  0  0  3  0  0  0  0  0  0
   -5.1970   44.4790   23.8290 C   0  0  0  0  0  0  0  0  0  0  0  0
   -5.0830   45.7500   24.6300 C   0  0  0  0  0  1  0  0  0  0  0  0
   -6.2000   44.3490   22.9200 C   0  0  0  0  0  3  0  0  0  0  0  0
   -6.2920   43.1780   22.1950 C   0  0  0  0  0  3  0  0  0  0  0  0
   -3.8670   36.9440   21.3110 C   0  0  0  0  0  0  0  0  0  0  0  0
   -2.9050   36.2520   20.6350 C   0  0  0  0  0  3  0  0  0  0  0  0
   -3.2150   35.2020   19.7970 C   0  0  0  0  0  3  0  0  0  0  0  0
   -4.5280   34.8000   19.6020 C   0  0  0  0  0  3  0  0  0  0  0  0
   -5.5100   35.4820   20.2700 C   0  0  0  0  0  3  0  0  0  0  0  0
   -5.1880   36.5270   21.1050 C   0  0  0  0  0  3  0  0  0  0  0  0
 29 24  1  0
 40 39  1  0
 40 41  2  0
 39 38  2  0
 41 42  1  0
 25 26  1  6
 24 23  1  0
 12  4  1  0
 38 37  1  0
  8  7  1  0
  6  7  2  0
  6  5  1  0
 42 37  2  0
 23 25  1  0
 23 22  2  0
 37  1  1  0
  4  5  1  0
  4  3  1  0
 25 27  1  0
 25 30  1  0
  7  9  1  0
  5 11  2  0
 22  1  1  0
 22 27  1  0
  1  3  1  0
 36 30  1  0
 36 35  2  0
 27 28  2  0
 30 31  2  0
  3  2  2  0
  9 10  2  0
 11  2  1  0
 11 10  1  0
 35 33  1  0
 31 32  1  0
  2 13  1  0
 14 15  1  6
 33 32  2  0
 33 34  1  0
 21 20  1  0
 13 14  1  0
 14 20  1  0
 14 16  1  0
 20 18  1  0
 18 17  1  0
 18 19  2  0
M  RAD  8   1   2   6   2   8   2   9   2  10   2  13   3  15   2  16   2
M  RAD  8  17   2  26   2  31   2  32   2  34   2  35   2  36   2  38   2
M  RAD  4  39   2  40   2  41   2  42   2
M  END
>  <_TriposChargeType>  (1) 
GASTEIGER

>  <SuCOS_score>  (1) 
0.3291852300309914

>  <Volume_score>  (1) 
0.5098560354374309

>  <Feature_score>  (1) 
0.14851442462455203

$$$$
