DOCK.F10.P3s0n/L1015_ligand.pdbt
     RDKit          3D

 32 35  0  0  0  0  0  0  0  0999 V2000
   -3.5030   39.1800   22.5360 N   0  0  0  0  0  0  0  0  0  0  0  0
   -3.2890   39.8860   23.2740 H   0  0  0  0  0  0  0  0  0  0  0  0
   -4.7040   39.2980   21.8160 C   0  0  0  0  0  0  0  0  0  0  0  0
   -5.6110   38.2810   21.5890 C   0  0  0  0  0  3  0  0  0  0  0  0
   -6.7920   38.4360   20.8900 C   0  0  0  0  0  3  0  0  0  0  0  0
   -7.1090   39.6650   20.3780 C   0  0  0  0  0  0  0  0  0  0  0  0
   -6.2250   40.7020   20.5870 C   0  0  0  0  0  3  0  0  0  0  0  0
   -5.0710   40.5400   21.2720 C   0  0  0  0  0  0  0  0  0  0  0  0
   -8.3420   39.9120   19.6240 C   0  0  0  0  0  0  0  0  0  0  0  0
   -9.3820   39.0010   19.6000 C   0  0  0  0  0  3  0  0  0  0  0  0
  -10.5340   39.2720   18.8740 C   0  0  0  0  0  3  0  0  0  0  0  0
  -10.6310   40.4160   18.1980 N   0  0  0  0  0  0  0  0  0  0  0  0
   -9.6440   41.3330   18.1930 C   0  0  0  0  0  3  0  0  0  0  0  0
   -8.5050   41.0730   18.9070 C   0  0  0  0  0  3  0  0  0  0  0  0
   -3.9860   41.8850   21.5090 S   0  0  1  0  0  6  0  0  0  0  0  0
   -4.8530   43.1520   22.3990 C   0  0  0  0  0  1  0  0  0  0  0  0
   -2.8000   41.4390   22.3130 O   0  0  0  0  0  0  0  0  0  0  0  0
   -3.4530   42.4000   20.2010 O   0  0  0  0  0  0  0  0  0  0  0  0
   -2.3990   37.9250   22.2370 S   0  0  2  0  0  6  0  0  0  0  0  0
   -2.6660   37.3750   20.8430 O   0  0  0  0  0  0  0  0  0  0  0  0
   -2.6440   36.7740   23.1770 O   0  0  0  0  0  0  0  0  0  0  0  0
   -0.1880   37.3870   24.5130 C   0  0  0  0  0  1  0  0  0  0  0  0
    0.2070   38.2270   23.3060 C   0  0  0  0  0  0  0  0  0  0  0  0
   -0.7360   38.4510   22.3460 C   0  0  0  0  0  0  0  0  0  0  0  0
    0.0750   39.4010   21.2030 S   0  0  0  0  0  0  0  0  0  0  0  0
    1.6100   39.5010   21.9670 C   0  0  0  0  0  0  0  0  0  0  0  0
    2.8130   40.1260   21.6230 C   0  0  0  0  0  3  0  0  0  0  0  0
    3.9130   40.0350   22.4490 C   0  0  0  0  0  3  0  0  0  0  0  0
    3.7250   39.3020   23.6000 C   0  0  0  0  0  0  0  0  0  0  0  0
    4.8010   39.2000   24.4310 F   0  0  0  0  0  0  0  0  0  0  0  0
    2.5590   38.6850   23.9520 C   0  0  0  0  0  3  0  0  0  0  0  0
    1.4260   38.7720   23.1100 C   0  0  0  0  0  0  0  0  0  0  0  0
 13 12  2  0
 13 14  1  0
 12 11  1  0
 11 10  2  0
 14  9  2  0
 10  9  1  0
  9  6  1  0
 18 15  2  0
  6  7  2  0
  6  5  1  0
  7  8  1  0
 20 19  2  0
  5  4  2  0
 25 26  1  0
 25 24  1  0
  8 15  1  0
  8  3  2  0
 15 17  2  0
 15 16  1  1
  4  3  1  0
 27 26  1  0
 27 28  2  0
  3  1  1  0
 26 32  2  0
 19 24  1  0
 19  1  1  1
 19 21  2  0
 24 23  2  0
 28 29  1  0
  1  2  1  0
 32 23  1  0
 32 31  1  0
 23 22  1  0
 29 31  2  0
 29 30  1  0
M  RAD  8   4   2   5   2   7   2  10   2  11   2  13   2  14   2  16   2
M  RAD  4  22   2  27   2  28   2  31   2
M  END
>  <_TriposChargeType>  (1) 
GASTEIGER

>  <SuCOS_score>  (1) 
0.3496975006555294

>  <Volume_score>  (1) 
0.4603227232537578

>  <Feature_score>  (1) 
0.239072278057301

$$$$
