DOCK.F10.P3s0n/L1013_ligand.pdbt
     RDKit          3D

 27 30  0  0  0  0  0  0  0  0999 V2000
   -4.4190   39.3550   21.5720 N   0  0  0  0  0  4  0  0  0  0  0  0
   -3.1910   39.9500   21.5760 C   0  0  0  0  0  0  0  0  0  0  0  0
   -2.1940   39.0170   21.4060 C   0  0  0  0  0  0  0  0  0  0  0  0
   -2.8960   37.7950   21.2940 C   0  0  0  0  0  0  0  0  0  0  0  0
   -2.4690   36.5020   21.0850 C   0  0  0  0  0  3  0  0  0  0  0  0
   -3.3730   35.4620   20.9850 C   0  0  0  0  0  3  0  0  0  0  0  0
   -4.7160   35.7160   21.0950 C   0  0  0  0  0  3  0  0  0  0  0  0
   -5.1610   36.9970   21.3010 C   0  0  0  0  0  3  0  0  0  0  0  0
   -4.2240   38.0430   21.3980 C   0  0  0  0  0  0  0  0  0  0  0  0
   -3.0560   41.4000   21.7160 C   0  0  0  0  0  0  0  0  0  0  0  0
   -2.4000   42.0160   20.8000 O   0  0  0  0  0  1  0  0  0  0  0  0
   -3.5710   42.1550   22.7460 O   0  0  0  0  0  0  0  0  0  0  0  0
   -5.7380   39.9570   21.7290 C   0  0  0  0  0  2  0  0  0  0  0  0
   -6.1960   40.6070   20.4470 C   0  0  0  0  0  2  0  0  0  0  0  0
   -7.9660   40.9990   19.0000 C   0  0  0  0  0  1  0  0  0  0  0  0
   -7.4200   40.1970   19.9940 O   0  0  0  0  0  0  0  0  0  0  0  0
   -0.7390   39.1640   21.2710 C   0  0  0  0  0  2  0  0  0  0  0  0
    0.1760   38.9090   22.3340 C   0  0  0  0  0  0  0  0  0  0  0  0
   -0.2630   38.3270   23.5420 C   0  0  0  0  0  3  0  0  0  0  0  0
    0.5290   38.1090   24.6220 C   0  0  0  0  0  3  0  0  0  0  0  0
    1.8470   38.4580   24.5890 C   0  0  0  0  0  3  0  0  0  0  0  0
    2.3430   39.0300   23.4480 C   0  0  0  0  0  0  0  0  0  0  0  0
    3.6810   39.4000   23.4020 C   0  0  0  0  0  3  0  0  0  0  0  0
    4.2370   39.9890   22.2800 C   0  0  0  0  0  3  0  0  0  0  0  0
    3.4260   40.2000   21.2110 C   0  0  0  0  0  3  0  0  0  0  0  0
    2.1090   39.8310   21.2700 C   0  0  0  0  0  3  0  0  0  0  0  0
    1.5040   39.2440   22.3510 C   0  0  0  0  0  0  0  0  0  0  0  0
 15 16  1  0
 16 14  1  0
 14 13  1  0
 11 10  1  0
  6  5  2  0
  6  7  1  0
  5  4  1  0
  7  8  2  0
 25 26  1  0
 25 24  2  0
 26 27  2  0
 17  3  1  0
 17 18  1  0
  4  9  2  0
  4  3  1  0
  8  9  1  0
  9  1  1  0
  3  2  2  0
  1  2  1  0
  1 13  1  0
  2 10  1  0
 10 12  2  0
 24 23  1  0
 18 27  1  0
 18 19  2  0
 27 22  1  0
 23 22  2  0
 22 21  1  0
 19 20  1  0
 21 20  2  0
M  RAD  8   5   2   6   2   7   2   8   2  13   3  14   3  15   2  17   3
M  CHG  2   1   1  11  -1
M  RAD  7  19   2  20   2  21   2  23   2  24   2  25   2  26   2
M  END
>  <_TriposChargeType>  (1) 
GASTEIGER

>  <SuCOS_score>  (1) 
0.34106950732927194

>  <Volume_score>  (1) 
0.46989282952159983

>  <Feature_score>  (1) 
0.21224618513694407

$$$$
