DOCK.F10.P3s0n/L1011_ligand.pdbt
     RDKit          3D

 30 33  0  0  0  0  0  0  0  0999 V2000
   -4.1970   38.9260   21.7580 C   0  0  0  0  0  0  0  0  0  0  0  0
   -3.0200   39.6600   21.6590 C   0  0  0  0  0  0  0  0  0  0  0  0
   -2.0290   38.8060   21.2520 N   0  0  0  0  0  4  0  0  0  0  0  0
   -2.5350   37.5690   21.0890 C   0  0  0  0  0  0  0  0  0  0  0  0
   -2.0000   36.3550   20.6930 C   0  0  0  0  0  3  0  0  0  0  0  0
   -2.7560   35.2040   20.5970 C   0  0  0  0  0  3  0  0  0  0  0  0
   -4.0960   35.3010   20.9190 C   0  0  0  0  0  0  0  0  0  0  0  0
   -4.8460   34.1760   20.8330 F   0  0  0  0  0  0  0  0  0  0  0  0
   -4.6400   36.4940   21.3120 C   0  0  0  0  0  3  0  0  0  0  0  0
   -3.8680   37.6340   21.4000 C   0  0  0  0  0  0  0  0  0  0  0  0
   -2.9720   41.0880   21.9050 C   0  0  0  0  0  0  0  0  0  0  0  0
   -3.4020   41.5750   22.9990 O   0  0  0  0  0  1  0  0  0  0  0  0
   -2.4700   42.0000   20.9900 O   0  0  0  0  0  0  0  0  0  0  0  0
   -5.5520   39.4020   22.1310 C   0  0  0  0  0  2  0  0  0  0  0  0
   -7.6390   40.8030   19.2030 C   0  0  0  0  0  1  0  0  0  0  0  0
   -6.7450   40.8040   20.3570 N   0  0  0  0  0  0  0  0  0  0  0  0
   -6.2550   42.0720   20.7990 C   0  0  0  0  0  1  0  0  0  0  0  0
   -6.4200   39.5740   20.9570 C   0  0  0  0  0  0  0  0  0  0  0  0
   -6.9050   38.5020   20.4600 O   0  0  0  0  0  0  0  0  0  0  0  0
   -0.6550   39.2290   21.1050 C   0  0  0  0  0  2  0  0  0  0  0  0
    0.0840   38.9750   22.3680 C   0  0  0  0  0  0  0  0  0  0  0  0
   -0.5670   38.3590   23.4340 C   0  0  0  0  0  3  0  0  0  0  0  0
    0.1250   37.9990   24.5810 C   0  0  0  0  0  3  0  0  0  0  0  0
    1.4680   38.2550   24.6620 C   0  0  0  0  0  3  0  0  0  0  0  0
    2.1630   38.8620   23.6450 C   0  0  0  0  0  0  0  0  0  0  0  0
    3.5260   39.1430   23.8000 C   0  0  0  0  0  3  0  0  0  0  0  0
    4.1640   39.8000   22.7710 C   0  0  0  0  0  3  0  0  0  0  0  0
    3.5270   40.1780   21.6250 C   0  0  0  0  0  3  0  0  0  0  0  0
    2.1560   39.8700   21.5180 C   0  0  0  0  0  3  0  0  0  0  0  0
    1.4570   39.2170   22.5030 C   0  0  0  0  0  0  0  0  0  0  0  0
 15 16  1  0
 16 17  1  0
 16 18  1  0
 19 18  2  0
  6  5  2  0
  6  7  1  0
  5  4  1  0
  8  7  1  0
  7  9  2  0
 18 14  1  0
 13 11  2  0
  4  3  1  0
  4 10  2  0
 20  3  1  0
 20 21  1  0
  3  2  1  0
  9 10  1  0
 10  1  1  0
 29 28  1  0
 29 30  2  0
 28 27  2  0
  2  1  2  0
  2 11  1  0
  1 14  1  0
 11 12  1  0
 21 30  1  0
 21 22  2  0
 30 25  1  0
 27 26  1  0
 22 23  1  0
 25 26  2  0
 25 24  1  0
 23 24  2  0
M  RAD  8   5   2   6   2   9   2  14   3  15   2  17   2  20   3  22   2
M  CHG  2   3   1  12  -1
M  RAD  6  23   2  24   2  26   2  27   2  28   2  29   2
M  END
>  <_TriposChargeType>  (1) 
GASTEIGER

>  <SuCOS_score>  (1) 
0.3467493386503218

>  <Volume_score>  (1) 
0.5156336316429124

>  <Feature_score>  (1) 
0.17786504565773123

$$$$
