DOCK.F10.P4k5z/L1008_ligand.pdbt
     RDKit          3D

 32 36  0  0  0  0  0  0  0  0999 V2000
   -1.9100   38.5720   23.0260 C   0  0  0  0  0  3  0  0  0  0  0  0
    5.5020   39.3930   24.0000 C   0  0  0  0  0  1  0  0  0  0  0  0
    4.2150   39.4850   23.2450 C   0  0  0  0  0  0  0  0  0  0  0  0
    4.2360   40.0000   21.9680 C   0  0  0  0  0  3  0  0  0  0  0  0
    3.0280   40.0720   21.2960 C   0  0  0  0  0  3  0  0  0  0  0  0
    1.8520   39.6380   21.9000 C   0  0  0  0  0  0  0  0  0  0  0  0
    0.2230   39.5740   21.4000 S   0  0  0  0  0  0  0  0  0  0  0  0
   -0.4780   38.9000   22.7970 C   0  0  0  0  0  0  0  0  0  0  0  0
    0.6010   38.7420   23.6310 C   0  0  0  0  0  0  0  0  0  0  0  0
    0.3630   38.1480   25.0180 C   0  0  0  0  0  1  0  0  0  0  0  0
    1.8040   39.1230   23.1680 C   0  0  0  0  0  0  0  0  0  0  0  0
    3.0490   39.0650   23.8170 C   0  0  0  0  0  3  0  0  0  0  0  0
   -2.8350   39.6380   22.5560 C   0  0  0  0  0  0  0  0  0  0  0  0
   -2.7740   40.8010   21.9910 C   0  0  0  0  0  0  0  0  0  0  0  0
   -1.7040   41.6010   21.5550 O   0  0  0  0  0  0  0  0  0  0  0  0
   -4.2060   40.9940   21.9650 C   0  0  1  0  0  0  0  0  0  0  0  0
   -4.8660   40.9430   20.6000 C   0  0  0  0  0  1  0  0  0  0  0  0
   -4.2710   39.6940   22.5990 C   0  0  0  0  0  0  0  0  0  0  0  0
   -5.2240   38.9400   23.0120 O   0  0  0  0  0  0  0  0  0  0  0  0
   -1.4780   41.5500   20.5700 H   0  0  0  0  0  0  0  0  0  0  0  0
   -4.7400   42.0570   22.8490 C   0  0  0  0  0  0  0  0  0  0  0  0
   -4.8000   41.9240   24.2150 C   0  0  0  0  0  3  0  0  0  0  0  0
   -5.3030   42.9220   25.0340 C   0  0  0  0  0  3  0  0  0  0  0  0
   -5.7570   44.0820   24.4750 C   0  0  0  0  0  3  0  0  0  0  0  0
   -5.7030   44.2290   23.1060 C   0  0  0  0  0  3  0  0  0  0  0  0
   -5.1980   43.2260   22.2880 C   0  0  0  0  0  3  0  0  0  0  0  0
   -2.2130   37.3440   22.2420 C   0  0  0  0  0  0  0  0  0  0  0  0
   -2.2620   37.3510   20.8650 C   0  0  0  0  0  3  0  0  0  0  0  0
   -2.5450   36.2010   20.2010 C   0  0  0  0  0  3  0  0  0  0  0  0
   -2.7830   35.0400   20.8630 C   0  0  0  0  0  3  0  0  0  0  0  0
   -2.7310   35.0390   22.2590 C   0  0  0  0  0  3  0  0  0  0  0  0
   -2.4480   36.1860   22.9630 C   0  0  0  0  0  3  0  0  0  0  0  0
 29 30  1  0
 29 28  2  0
 20 15  1  0
 16 17  1  6
 30 31  2  0
 28 27  1  0
  5  6  2  0
  5  4  1  0
  7  6  1  0
  7  8  1  0
 15 14  1  0
  6 11  1  0
 16 14  1  0
 16 18  1  0
 16 21  1  0
  4  3  2  0
 14 13  2  0
 27 32  2  0
 27  1  1  0
 31 32  1  0
 26 21  1  0
 26 25  2  0
 13 18  1  0
 13  1  1  0
 18 19  2  0
  8  1  1  0
  8  9  2  0
 21 22  2  0
 25 24  1  0
 11  9  1  0
 11 12  2  0
  3 12  1  0
  3  2  1  0
  9 10  1  0
 22 23  1  0
 24 23  2  0
M  RAD  8   1   2   2   2   4   2   5   2  10   2  12   2  17   2  22   2
M  RAD  8  23   2  24   2  25   2  26   2  28   2  29   2  30   2  31   2
M  RAD  1  32   2
M  END
>  <_TriposChargeType>  (1) 
GASTEIGER

>  <SuCOS_score>  (1) 
0.4244955978831927

>  <Volume_score>  (1) 
0.5525356314219423

>  <Feature_score>  (1) 
0.29645556434444303

$$$$
