DOCK.F10.P4k5z/L1006_ligand.pdbt
     RDKit          3D

 42 46  0  0  0  0  0  0  0  0999 V2000
   -2.5420   37.7930   22.4970 C   0  0  0  0  0  3  0  0  0  0  0  0
   -0.2420   38.1750   23.6650 C   0  0  0  0  0  0  0  0  0  0  0  0
   -1.1840   38.2730   22.6310 C   0  0  0  0  0  0  0  0  0  0  0  0
   -0.4990   38.8270   21.5860 N   0  0  0  0  0  0  0  0  0  0  0  0
    0.7640   39.0630   21.8910 C   0  0  0  0  0  0  0  0  0  0  0  0
    1.7920   39.5980   21.1060 C   0  0  0  0  0  3  0  0  0  0  0  0
    3.0500   39.7380   21.6220 C   0  0  0  0  0  0  0  0  0  0  0  0
    4.1660   40.3100   20.8000 C   0  0  0  0  0  1  0  0  0  0  0  0
    3.2430   39.3340   22.9180 C   0  0  0  0  0  3  0  0  0  0  0  0
    2.2320   38.8080   23.6910 C   0  0  0  0  0  3  0  0  0  0  0  0
    0.9570   38.6600   23.1910 C   0  0  0  0  0  0  0  0  0  0  0  0
   -0.9100   39.0520   20.6310 H   0  0  0  0  0  0  0  0  0  0  0  0
   -0.5500   37.7470   25.0050 C   0  0  0  0  0  2  0  0  0  0  0  0
   -0.9330   36.3150   25.2630 C   0  0  1  0  0  0  0  0  0  0  0  0
   -0.3040   35.3960   24.1900 C   0  0  0  0  0  1  0  0  0  0  0  0
   -0.5480   35.7780   26.5950 C   0  0  0  0  0  1  0  0  0  0  0  0
   -4.6720   36.2300   26.2350 C   0  0  0  0  0  1  0  0  0  0  0  0
   -3.1810   36.4010   26.2730 C   0  0  0  0  0  0  0  0  0  0  0  0
   -2.6290   36.8000   27.3290 O   0  0  0  0  0  0  0  0  0  0  0  0
   -2.3950   36.1090   25.1030 N   0  0  0  0  0  0  0  0  0  0  0  0
   -2.8290   35.7840   24.2330 H   0  0  0  0  0  0  0  0  0  0  0  0
   -3.5070   38.9560   22.5540 C   0  0  0  0  0  0  0  0  0  0  0  0
   -4.7110   39.1710   22.9800 C   0  0  0  0  0  0  0  0  0  0  0  0
   -5.6660   38.3500   23.6020 O   0  0  0  0  0  0  0  0  0  0  0  0
   -4.7440   40.5830   22.5870 C   0  0  1  0  0  0  0  0  0  0  0  0
   -4.7960   41.5910   23.6940 C   0  0  0  0  0  1  0  0  0  0  0  0
   -3.3860   40.3280   22.1080 C   0  0  0  0  0  0  0  0  0  0  0  0
   -2.4870   41.0090   21.5460 O   0  0  0  0  0  0  0  0  0  0  0  0
   -5.7810   38.4880   24.6040 H   0  0  0  0  0  0  0  0  0  0  0  0
   -5.7780   40.7740   21.5220 C   0  0  0  0  0  0  0  0  0  0  0  0
   -6.3220   39.7070   20.8260 C   0  0  0  0  0  3  0  0  0  0  0  0
   -7.2810   39.9060   19.8430 C   0  0  0  0  0  3  0  0  0  0  0  0
   -7.7170   41.1760   19.5340 C   0  0  0  0  0  0  0  0  0  0  0  0
   -8.7570   41.4000   18.4680 C   0  0  0  0  0  1  0  0  0  0  0  0
   -7.2010   42.2440   20.2000 C   0  0  0  0  0  3  0  0  0  0  0  0
   -6.2480   42.0230   21.1740 C   0  0  0  0  0  3  0  0  0  0  0  0
   -2.9320   36.8620   21.4600 C   0  0  0  0  0  0  0  0  0  0  0  0
   -1.9820   36.3080   20.6530 C   0  0  0  0  0  3  0  0  0  0  0  0
   -2.3060   35.4270   19.6430 C   0  0  0  0  0  3  0  0  0  0  0  0
   -3.6210   35.0610   19.4010 C   0  0  0  0  0  3  0  0  0  0  0  0
   -4.5920   35.6050   20.2000 C   0  0  0  0  0  3  0  0  0  0  0  0
   -4.2570   36.4830   21.2050 C   0  0  0  0  0  3  0  0  0  0  0  0
 34 33  1  0
 40 39  1  0
 40 41  2  0
 33 32  1  0
 33 35  2  0
 39 38  2  0
 32 31  2  0
 41 42  1  0
 35 36  1  0
 12  4  1  0
 38 37  1  0
  8  7  1  0
 31 30  1  0
  6  7  2  0
  6  5  1  0
 36 30  2  0
 42 37  2  0
 37  1  1  0
 30 25  1  0
 28 27  2  0
  4  5  1  0
  4  3  1  0
  7  9  1  0
  5 11  2  0
 27 22  1  0
 27 25  1  0
  1 22  1  0
  1  3  1  0
 22 23  2  0
 25 23  1  0
 25 26  1  1
  3  2  2  0
  9 10  2  0
 23 24  1  0
 11  2  1  0
 11 10  1  0
 24 29  1  0
  2 13  1  0
 14 15  1  6
 21 20  1  0
 13 14  1  0
 20 14  1  0
 20 18  1  0
 14 16  1  0
 17 18  1  0
 18 19  2  0
M  RAD  8   1   2   6   2   8   2   9   2  10   2  13   3  15   2  16   2
M  RAD  8  17   2  26   2  31   2  32   2  34   2  35   2  36   2  38   2
M  RAD  4  39   2  40   2  41   2  42   2
M  END
>  <_TriposChargeType>  (1) 
GASTEIGER

>  <SuCOS_score>  (1) 
0.3511245318236981

>  <Volume_score>  (1) 
0.5426073483842409

>  <Feature_score>  (1) 
0.15964171526315543

$$$$
