DOCK.F10.P4k5z/L1007_ligand.pdbt
     RDKit          3D

 31 35  0  0  0  0  0  0  0  0999 V2000
   -2.5100   38.0240   22.6160 C   0  0  0  0  0  3  0  0  0  0  0  0
   -1.1180   38.4560   22.6750 C   0  0  0  0  0  0  0  0  0  0  0  0
   -0.4810   38.3500   23.9240 C   0  0  0  0  0  3  0  0  0  0  0  0
    0.8210   38.7170   24.1360 C   0  0  0  0  0  3  0  0  0  0  0  0
    1.5500   39.2170   23.0810 C   0  0  0  0  0  0  0  0  0  0  0  0
    2.8760   39.5950   23.2780 C   0  0  0  0  0  3  0  0  0  0  0  0
    3.5970   40.0930   22.2230 C   0  0  0  0  0  3  0  0  0  0  0  0
    2.9760   40.1990   21.0000 C   0  0  0  0  0  3  0  0  0  0  0  0
    1.6730   39.8280   20.7990 C   0  0  0  0  0  3  0  0  0  0  0  0
    0.9230   39.3210   21.8520 C   0  0  0  0  0  0  0  0  0  0  0  0
   -0.3880   38.9500   21.6430 C   0  0  0  0  0  3  0  0  0  0  0  0
   -4.8410   41.7180   23.6590 C   0  0  0  0  0  1  0  0  0  0  0  0
   -4.8490   40.6500   22.5540 C   0  0  2  0  0  0  0  0  0  0  0  0
   -4.8550   39.3190   23.0990 C   0  0  0  0  0  0  0  0  0  0  0  0
   -5.6930   38.6470   23.7320 O   0  0  0  0  0  0  0  0  0  0  0  0
   -3.5230   39.1240   22.6100 C   0  0  0  0  0  0  0  0  0  0  0  0
   -3.5150   40.3400   22.1120 C   0  0  0  0  0  0  0  0  0  0  0  0
   -2.5700   41.0980   21.4000 O   0  0  0  0  0  0  0  0  0  0  0  0
   -1.7340   41.3640   21.9070 H   0  0  0  0  0  0  0  0  0  0  0  0
   -5.8480   40.9630   21.5050 C   0  0  0  0  0  0  0  0  0  0  0  0
   -6.3910   39.9160   20.7970 C   0  0  0  0  0  3  0  0  0  0  0  0
   -7.3290   40.1130   19.8000 C   0  0  0  0  0  3  0  0  0  0  0  0
   -7.7470   41.3830   19.4880 C   0  0  0  0  0  3  0  0  0  0  0  0
   -7.2000   42.4300   20.2000 C   0  0  0  0  0  3  0  0  0  0  0  0
   -6.2610   42.2220   21.1960 C   0  0  0  0  0  3  0  0  0  0  0  0
   -2.6840   37.0440   21.5310 C   0  0  0  0  0  0  0  0  0  0  0  0
   -3.9250   36.5340   21.2200 C   0  0  0  0  0  3  0  0  0  0  0  0
   -4.1290   35.6110   20.2290 C   0  0  0  0  0  3  0  0  0  0  0  0
   -3.0560   35.1650   19.5010 C   0  0  0  0  0  3  0  0  0  0  0  0
   -1.8060   35.6670   19.8000 C   0  0  0  0  0  3  0  0  0  0  0  0
   -1.5940   36.6000   20.8020 C   0  0  0  0  0  3  0  0  0  0  0  0
 23 22  1  0
 23 24  2  0
 29 30  2  0
 29 28  1  0
 22 21  2  0
 30 31  1  0
 24 25  1  0
 28 27  2  0
 21 20  1  0
  9  8  2  0
  9 10  1  0
 31 26  2  0
  8  7  1  0
 25 20  2  0
 27 26  1  0
 18 19  1  0
 18 17  1  0
 20 13  1  0
 26  1  1  0
 11 10  2  0
 11  2  1  0
 10  5  1  0
 17 13  1  0
 17 16  2  0
  7  6  2  0
 13 14  1  0
 13 12  1  1
 16  1  1  0
 16 14  1  0
  1  2  1  0
  2  3  2  0
  5  6  1  0
  5  4  2  0
 14 15  2  0
  3  4  1  0
M  RAD  8   1   2   3   2   4   2   6   2   7   2   8   2   9   2  11   2
M  RAD  8  12   2  21   2  22   2  23   2  24   2  25   2  27   2  28   2
M  RAD  3  29   2  30   2  31   2
M  END
>  <_TriposChargeType>  (1) 
GASTEIGER

>  <SuCOS_score>  (1) 
0.33138752083577216

>  <Volume_score>  (1) 
0.5270135896586012

>  <Feature_score>  (1) 
0.13576145201294315

$$$$
