DOCK.F10.P4k5z/L1005_ligand.pdbt
     RDKit          3D

 31 34  0  0  0  0  0  0  0  0999 V2000
   -4.1650   38.7680   21.5490 C   0  0  0  0  0  0  0  0  0  0  0  0
   -3.0610   39.6470   21.5940 C   0  0  0  0  0  0  0  0  0  0  0  0
   -1.9450   38.9870   21.3170 N   0  0  0  0  0  4  0  0  0  0  0  0
   -2.2830   37.6590   21.0890 C   0  0  0  0  0  0  0  0  0  0  0  0
   -1.4320   36.6130   20.8000 C   0  0  0  0  0  3  0  0  0  0  0  0
   -2.0030   35.3420   20.6480 C   0  0  0  0  0  3  0  0  0  0  0  0
   -3.3600   35.1840   20.7890 C   0  0  0  0  0  0  0  0  0  0  0  0
   -3.9390   33.9430   20.6400 F   0  0  0  0  0  0  0  0  0  0  0  0
   -4.1760   36.2650   21.0790 C   0  0  0  0  0  3  0  0  0  0  0  0
   -3.6490   37.5360   21.2350 C   0  0  0  0  0  0  0  0  0  0  0  0
   -3.2460   41.0570   21.9400 C   0  0  0  0  0  0  0  0  0  0  0  0
   -2.8000   42.0000   21.2000 O   0  0  0  0  0  1  0  0  0  0  0  0
   -3.9040   41.5000   23.0640 O   0  0  0  0  0  0  0  0  0  0  0  0
   -5.5490   39.1650   21.8250 C   0  0  0  0  0  2  0  0  0  0  0  0
   -7.1700   40.2770   20.2510 C   0  0  0  0  0  0  0  0  0  0  0  0
   -7.6990   39.1500   20.0000 O   0  0  0  0  0  0  0  0  0  0  0  0
   -6.0850   40.2990   21.1670 N   0  0  0  0  0  0  0  0  0  0  0  0
   -5.6810   41.2790   21.3430 H   0  0  0  0  0  0  0  0  0  0  0  0
   -8.6020   41.4000   18.6000 C   0  0  0  0  0  1  0  0  0  0  0  0
   -7.6510   41.4320   19.6400 O   0  0  0  0  0  0  0  0  0  0  0  0
   -0.5730   39.4670   21.2920 C   0  0  0  0  0  2  0  0  0  0  0  0
    0.1210   39.1580   22.5270 C   0  0  0  0  0  0  0  0  0  0  0  0
   -0.5600   38.6130   23.6060 C   0  0  0  0  0  3  0  0  0  0  0  0
    0.0310   38.1910   24.7750 C   0  0  0  0  0  3  0  0  0  0  0  0
    1.4000   38.3310   24.8560 C   0  0  0  0  0  3  0  0  0  0  0  0
    2.1190   38.8610   23.8330 C   0  0  0  0  0  0  0  0  0  0  0  0
    3.4670   39.0170   24.0010 C   0  0  0  0  0  3  0  0  0  0  0  0
    4.2480   39.6000   23.0090 C   0  0  0  0  0  3  0  0  0  0  0  0
    3.6150   40.0190   21.8430 C   0  0  0  0  0  3  0  0  0  0  0  0
    2.2570   39.8630   21.6670 C   0  0  0  0  0  3  0  0  0  0  0  0
    1.4890   39.2850   22.6460 C   0  0  0  0  0  0  0  0  0  0  0  0
 19 20  1  0
 20 15  1  0
 16 15  2  0
 15 17  1  0
  8  7  1  0
  6  7  2  0
  6  5  1  0
  7  9  1  0
  5  4  2  0
  9 10  2  0
  4 10  1  0
  4  3  1  0
 17 18  1  0
 17 14  1  0
 12 11  1  0
 10  1  1  0
 21  3  1  0
 21 22  1  0
  3  2  1  0
  1  2  2  0
  1 14  1  0
  2 11  1  0
 30 29  1  0
 30 31  2  0
 29 28  2  0
 11 13  2  0
 22 31  1  0
 22 23  2  0
 31 26  1  0
 28 27  1  0
 23 24  1  0
 26 27  2  0
 26 25  1  0
 24 25  2  0
M  RAD  8   5   2   6   2   9   2  14   3  19   2  21   3  23   2  24   2
M  CHG  2   3   1  12  -1
M  RAD  5  25   2  27   2  28   2  29   2  30   2
M  END
>  <_TriposChargeType>  (1) 
GASTEIGER

>  <SuCOS_score>  (1) 
0.35028573571555366

>  <Volume_score>  (1) 
0.5051375538614518

>  <Feature_score>  (1) 
0.1954339175696556

$$$$
