DOCK.F10.P4k60/L1003_ligand.pdbt
     RDKit          3D

 32 35  0  0  0  0  0  0  0  0999 V2000
   -3.5260   39.6490   23.0010 N   0  0  0  0  0  0  0  0  0  0  0  0
   -3.2600   40.5340   23.5330 H   0  0  0  0  0  0  0  0  0  0  0  0
   -4.6860   39.7080   22.2310 C   0  0  0  0  0  0  0  0  0  0  0  0
   -5.5820   38.6540   22.1340 C   0  0  0  0  0  3  0  0  0  0  0  0
   -6.7250   38.7320   21.3550 C   0  0  0  0  0  3  0  0  0  0  0  0
   -7.0130   39.8740   20.6420 C   0  0  0  0  0  0  0  0  0  0  0  0
   -6.1380   40.9270   20.7270 C   0  0  0  0  0  3  0  0  0  0  0  0
   -4.9910   40.8420   21.5100 C   0  0  0  0  0  0  0  0  0  0  0  0
   -8.1970   40.0160   19.8070 C   0  0  0  0  0  0  0  0  0  0  0  0
   -9.1930   39.0530   19.7910 C   0  0  0  0  0  3  0  0  0  0  0  0
  -10.3260   39.1580   19.0110 C   0  0  0  0  0  3  0  0  0  0  0  0
  -10.4700   40.2560   18.2240 N   0  0  0  0  0  0  0  0  0  0  0  0
   -9.5210   41.2000   18.2230 C   0  0  0  0  0  3  0  0  0  0  0  0
   -8.3820   41.1150   18.9940 C   0  0  0  0  0  3  0  0  0  0  0  0
   -4.1170   42.0270   21.5230 C   0  0  2  0  0  0  0  0  0  0  0  0
   -4.2110   42.8000   20.4000 F   0  0  0  0  0  0  0  0  0  0  0  0
   -2.7980   41.6000   21.7370 F   0  0  0  0  0  0  0  0  0  0  0  0
   -4.4020   42.8470   22.5960 F   0  0  0  0  0  0  0  0  0  0  0  0
   -2.4660   38.3240   23.1970 S   0  0  1  0  0  6  0  0  0  0  0  0
   -2.6120   37.7150   24.5740 O   0  0  0  0  0  0  0  0  0  0  0  0
   -2.8410   37.1960   22.2410 O   0  0  0  0  0  0  0  0  0  0  0  0
    0.2790   38.1110   25.0390 C   0  0  0  0  0  1  0  0  0  0  0  0
    0.3400   38.6680   23.6240 C   0  0  0  0  0  0  0  0  0  0  0  0
   -0.7960   38.7360   22.8880 C   0  0  0  0  0  0  0  0  0  0  0  0
   -0.2520   39.4000   21.4000 S   0  0  0  0  0  0  0  0  0  0  0  0
    1.4010   39.5670   21.7650 C   0  0  0  0  0  0  0  0  0  0  0  0
    2.4880   40.0460   21.0320 C   0  0  0  0  0  3  0  0  0  0  0  0
    3.7510   40.0720   21.5820 C   0  0  0  0  0  3  0  0  0  0  0  0
    3.8420   39.6000   22.8740 C   0  0  0  0  0  0  0  0  0  0  0  0
    5.0920   39.6220   23.4280 F   0  0  0  0  0  0  0  0  0  0  0  0
    2.7840   39.1290   23.6010 C   0  0  0  0  0  3  0  0  0  0  0  0
    1.4900   39.1010   23.0420 C   0  0  0  0  0  0  0  0  0  0  0  0
 13 12  2  0
 13 14  1  0
 12 11  1  0
 14  9  2  0
 11 10  2  0
 10  9  1  0
  9  6  1  0
 15 16  1  6
  6  7  2  0
  6  5  1  0
  7  8  1  0
 27 28  2  0
 27 26  1  0
  5  4  2  0
 25 26  1  0
 25 24  1  0
  8 15  1  0
  8  3  2  0
 15 17  1  0
 15 18  1  0
 28 29  1  0
 26 32  2  0
  4  3  1  0
  3  1  1  0
 21 19  2  0
 29 30  1  0
 29 31  2  0
 24 19  1  0
 24 23  2  0
 19  1  1  1
  1  2  1  0
 32 31  1  0
 32 23  1  0
 19 20  2  0
 23 22  1  0
M  RAD  8   4   2   5   2   7   2  10   2  11   2  13   2  14   2  22   2
M  RAD  3  27   2  28   2  31   2
M  END
>  <_TriposChargeType>  (1) 
GASTEIGER

>  <SuCOS_score>  (1) 
0.3149700680092312

>  <Volume_score>  (1) 
0.45459579180509413

>  <Feature_score>  (1) 
0.1753443442133683

$$$$
