DOCK.F10.P4k60/L1004_ligand.pdbt
     RDKit          3D

 33 36  0  0  0  0  0  0  0  0999 V2000
   -2.8800   38.9990   22.8930 C   0  0  0  0  0  3  0  0  0  0  0  0
   -0.3600   38.7710   23.3830 C   0  0  0  0  0  0  0  0  0  0  0  0
   -1.4670   39.2330   22.6830 C   0  0  0  0  0  0  0  0  0  0  0  0
   -0.9930   39.9670   21.6350 N   0  0  0  0  0  0  0  0  0  0  0  0
    0.3450   40.0010   21.6200 C   0  0  0  0  0  0  0  0  0  0  0  0
    1.2650   40.6000   20.7810 C   0  0  0  0  0  3  0  0  0  0  0  0
    2.6220   40.4770   21.0000 C   0  0  0  0  0  3  0  0  0  0  0  0
    3.0460   39.7390   22.0840 C   0  0  0  0  0  0  0  0  0  0  0  0
    4.3750   39.6000   22.3170 F   0  0  0  0  0  0  0  0  0  0  0  0
    2.1020   39.1430   22.9170 C   0  0  0  0  0  3  0  0  0  0  0  0
    0.7450   39.2430   22.7270 C   0  0  0  0  0  0  0  0  0  0  0  0
   -1.5680   40.4710   20.8930 H   0  0  0  0  0  0  0  0  0  0  0  0
   -0.2000   36.5120   24.4920 C   0  0  0  0  0  1  0  0  0  0  0  0
   -0.4590   37.9930   24.6010 C   0  0  0  0  0  3  0  0  0  0  0  0
    0.6190   38.4850   25.6110 C   0  0  0  0  0  1  0  0  0  0  0  0
   -3.6810   40.2790   23.0640 C   0  0  0  0  0  0  0  0  0  0  0  0
   -3.6620   41.3710   22.3290 C   0  0  0  0  0  0  0  0  0  0  0  0
   -2.8350   41.5090   21.2000 O   0  0  0  0  0  0  0  0  0  0  0  0
   -4.6000   42.4000   22.8350 C   0  0  0  0  0  3  0  0  0  0  0  0
   -5.1800   41.8200   24.0000 N   0  0  0  0  0  0  0  0  0  0  0  0
   -4.6350   40.5230   24.1420 C   0  0  0  0  0  0  0  0  0  0  0  0
   -4.8900   39.6530   25.0430 O   0  0  0  0  0  0  0  0  0  0  0  0
   -3.2480   41.7350   20.2980 H   0  0  0  0  0  0  0  0  0  0  0  0
   -5.8760   42.2810   24.6210 H   0  0  0  0  0  0  0  0  0  0  0  0
   -5.6240   42.8000   21.8010 C   0  0  0  0  0  3  0  0  0  0  0  0
   -6.1220   41.5890   21.0350 C   0  0  0  0  0  1  0  0  0  0  0  0
   -6.8000   43.4160   22.5120 C   0  0  0  0  0  1  0  0  0  0  0  0
   -3.5630   38.0340   22.0340 C   0  0  0  0  0  0  0  0  0  0  0  0
   -2.9080   37.0460   21.3210 C   0  0  0  0  0  3  0  0  0  0  0  0
   -3.5900   36.1360   20.5360 C   0  0  0  0  0  3  0  0  0  0  0  0
   -4.9630   36.1740   20.4270 C   0  0  0  0  0  3  0  0  0  0  0  0
   -5.6230   37.1520   21.1310 C   0  0  0  0  0  3  0  0  0  0  0  0
   -4.9350   38.0470   21.9070 C   0  0  0  0  0  3  0  0  0  0  0  0
 23 18  1  0
 31 30  1  0
 31 32  2  0
 30 29  2  0
  6  7  2  0
  6  5  1  0
 12  4  1  0
  7  8  1  0
 26 25  1  0
 32 33  1  0
 18 17  1  0
 29 28  1  0
  5  4  1  0
  5 11  2  0
  4  3  1  0
 25 27  1  0
 25 19  1  0
 33 28  2  0
 28  1  1  0
  8  9  1  0
  8 10  2  0
 17 19  1  0
 17 16  2  0
  3  1  1  0
  3  2  2  0
 11 10  1  0
 11  2  1  0
 19 20  1  0
  1 16  1  0
 16 21  1  0
  2 14  1  0
 20 21  1  0
 20 24  1  0
 21 22  2  0
 13 14  1  0
 14 15  1  0
M  RAD  8   1   2   6   2   7   2  10   2  13   2  14   2  15   2  19   2
M  RAD  8  25   2  26   2  27   2  29   2  30   2  31   2  32   2  33   2
M  END
>  <_TriposChargeType>  (1) 
GASTEIGER

>  <SuCOS_score>  (1) 
0.2852228460438969

>  <Volume_score>  (1) 
0.48569218870843

>  <Feature_score>  (1) 
0.08475350337936388

$$$$
