DOCK.F10.P4k60/L1015_ligand.pdbt
     RDKit          3D

 32 35  0  0  0  0  0  0  0  0999 V2000
   -3.6900   40.9700   21.3180 N   0  0  0  0  0  0  0  0  0  0  0  0
   -3.4290   41.2620   20.3520 H   0  0  0  0  0  0  0  0  0  0  0  0
   -4.6400   41.7310   22.0220 C   0  0  0  0  0  0  0  0  0  0  0  0
   -4.3960   42.4660   23.1650 C   0  0  0  0  0  3  0  0  0  0  0  0
   -5.3520   43.2170   23.8220 C   0  0  0  0  0  3  0  0  0  0  0  0
   -6.6290   43.2540   23.3310 C   0  0  0  0  0  0  0  0  0  0  0  0
   -6.9050   42.5300   22.1890 C   0  0  0  0  0  3  0  0  0  0  0  0
   -5.9630   41.7980   21.5530 C   0  0  0  0  0  0  0  0  0  0  0  0
   -7.6990   44.0250   23.9680 C   0  0  0  0  0  0  0  0  0  0  0  0
   -7.8340   45.3880   23.7780 C   0  0  0  0  0  3  0  0  0  0  0  0
   -8.8620   46.0840   24.4000 C   0  0  0  0  0  3  0  0  0  0  0  0
   -9.7180   45.4300   25.1840 N   0  0  0  0  0  0  0  0  0  0  0  0
   -9.6260   44.1040   25.3990 C   0  0  0  0  0  3  0  0  0  0  0  0
   -8.6150   43.4110   24.7890 C   0  0  0  0  0  3  0  0  0  0  0  0
   -6.3630   40.9000   20.1130 S   0  0  1  0  0  6  0  0  0  0  0  0
   -7.8260   41.6100   19.4010 C   0  0  0  0  0  1  0  0  0  0  0  0
   -5.2350   41.0000   19.1270 O   0  0  0  0  0  0  0  0  0  0  0  0
   -6.5500   39.4380   20.4080 O   0  0  0  0  0  0  0  0  0  0  0  0
   -2.9620   39.5960   22.0000 S   0  0  2  0  0  6  0  0  0  0  0  0
   -3.3730   38.3800   21.1810 O   0  0  0  0  0  0  0  0  0  0  0  0
   -3.4980   39.3480   23.3850 O   0  0  0  0  0  0  0  0  0  0  0  0
   -0.8430   38.4010   24.1080 C   0  0  0  0  0  1  0  0  0  0  0  0
   -0.3130   39.2040   22.9280 C   0  0  0  0  0  0  0  0  0  0  0  0
   -1.2180   39.7070   22.0390 C   0  0  0  0  0  0  0  0  0  0  0  0
   -0.2560   40.5150   20.9040 S   0  0  0  0  0  0  0  0  0  0  0  0
    1.2920   40.2000   21.5800 C   0  0  0  0  0  0  0  0  0  0  0  0
    2.5920   40.5470   21.2000 C   0  0  0  0  0  3  0  0  0  0  0  0
    3.6740   40.1450   21.9530 C   0  0  0  0  0  3  0  0  0  0  0  0
    3.3690   39.4000   23.0710 C   0  0  0  0  0  0  0  0  0  0  0  0
    4.4260   38.9920   23.8300 F   0  0  0  0  0  0  0  0  0  0  0  0
    2.1070   39.0520   23.4570 C   0  0  0  0  0  3  0  0  0  0  0  0
    0.9900   39.4600   22.6890 C   0  0  0  0  0  0  0  0  0  0  0  0
 17 15  2  0
 15 16  1  6
 15 18  2  0
 15  8  1  0
  2  1  1  0
 25 26  1  0
 25 24  1  0
 20 19  2  0
 27 26  1  0
 27 28  2  0
 19  1  1  6
  1  3  1  0
  8  3  1  0
  8  7  2  0
 26 32  2  0
 28 29  1  0
 19 24  1  0
 19 21  2  0
  3  4  2  0
 24 23  2  0
  7  6  1  0
 32 23  1  0
 32 31  1  0
 23 22  1  0
 29 31  2  0
 29 30  1  0
  4  5  1  0
  6  5  2  0
  6  9  1  0
 10  9  2  0
 10 11  1  0
  9 14  1  0
 11 12  2  0
 14 13  2  0
 12 13  1  0
M  RAD  8   4   2   5   2   7   2  10   2  11   2  13   2  14   2  16   2
M  RAD  4  22   2  27   2  28   2  31   2
M  END
>  <_TriposChargeType>  (1) 
GASTEIGER

>  <SuCOS_score>  (1) 
0.36045702386428385

>  <Volume_score>  (1) 
0.4709976798143851

>  <Feature_score>  (1) 
0.24991636791418262

$$$$
