DOCK.F10.P4k60/L1010_ligand.pdbt
     RDKit          3D

 24 27  0  0  0  0  0  0  0  0999 V2000
   -3.2430   39.7500   21.7170 C   0  0  0  0  0  0  0  0  0  0  0  0
   -4.2430   38.8310   21.4760 C   0  0  0  0  0  3  0  0  0  0  0  0
   -3.6210   37.6360   21.2000 C   0  0  0  0  0  0  0  0  0  0  0  0
   -4.1260   36.3680   20.8840 C   0  0  0  0  0  3  0  0  0  0  0  0
   -3.2950   35.3010   20.6420 C   0  0  0  0  0  3  0  0  0  0  0  0
   -1.9480   35.5060   20.7160 C   0  0  0  0  0  3  0  0  0  0  0  0
   -1.4480   36.7530   21.0260 C   0  0  0  0  0  3  0  0  0  0  0  0
   -2.2790   37.8440   21.2740 C   0  0  0  0  0  0  0  0  0  0  0  0
   -2.0610   39.1280   21.5880 N   0  0  0  0  0  0  0  0  0  0  0  0
   -4.0010   41.4130   23.1610 O   0  0  0  0  0  1  0  0  0  0  0  0
   -3.4950   41.1510   22.0510 C   0  0  0  0  0  0  0  0  0  0  0  0
   -3.2000   42.2000   21.2000 O   0  0  0  0  0  0  0  0  0  0  0  0
   -0.7750   39.7170   21.7540 C   0  0  0  0  0  2  0  0  0  0  0  0
   -0.0120   39.2140   22.8970 C   0  0  0  0  0  0  0  0  0  0  0  0
   -0.5910   38.5980   23.9800 C   0  0  0  0  0  3  0  0  0  0  0  0
    0.2290   38.1650   24.9970 C   0  0  0  0  0  3  0  0  0  0  0  0
    1.5980   38.3240   24.9710 C   0  0  0  0  0  3  0  0  0  0  0  0
    2.1930   38.9480   23.8750 C   0  0  0  0  0  0  0  0  0  0  0  0
    3.5600   39.1160   23.8300 C   0  0  0  0  0  3  0  0  0  0  0  0
    4.1160   39.7360   22.7320 C   0  0  0  0  0  3  0  0  0  0  0  0
    3.3380   40.1790   21.7030 C   0  0  0  0  0  0  0  0  0  0  0  0
    3.8490   40.7960   20.6000 F   0  0  0  0  0  0  0  0  0  0  0  0
    1.9830   39.9930   21.7850 C   0  0  0  0  0  3  0  0  0  0  0  0
    1.3580   39.3710   22.8730 C   0  0  0  0  0  0  0  0  0  0  0  0
 22 21  1  0
  5  6  2  0
  5  4  1  0
  6  7  1  0
  4  3  2  0
  7  8  2  0
  3  8  1  0
  3  2  1  0
 12 11  2  0
  8  9  1  0
  2  1  2  0
  9  1  1  0
  9 13  1  0
 21 23  1  0
 21 20  2  0
  1 11  1  0
 13 14  1  0
 23 24  2  0
 11 10  1  0
 20 19  1  0
 24 14  1  0
 24 18  1  0
 14 15  2  0
 19 18  2  0
 18 17  1  0
 15 16  1  0
 17 16  2  0
M  RAD  8   2   2   4   2   5   2   6   2   7   2  13   3  15   2  16   2
M  CHG  1  10  -1
M  RAD  4  17   2  19   2  20   2  23   2
M  END
>  <_TriposChargeType>  (1) 
GASTEIGER

>  <SuCOS_score>  (1) 
0.33977927340366987

>  <Volume_score>  (1) 
0.42945530880565685

>  <Feature_score>  (1) 
0.25010323800168294

$$$$
