DOCK.F10.P4k60/L1013_ligand.pdbt
     RDKit          3D

 27 30  0  0  0  0  0  0  0  0999 V2000
   -4.3120   39.2530   21.5750 N   0  0  0  0  0  4  0  0  0  0  0  0
   -3.3360   40.1880   21.7560 C   0  0  0  0  0  0  0  0  0  0  0  0
   -2.0880   39.6130   21.6980 C   0  0  0  0  0  0  0  0  0  0  0  0
   -2.3620   38.2450   21.4650 C   0  0  0  0  0  0  0  0  0  0  0  0
   -1.5370   37.1570   21.2850 C   0  0  0  0  0  3  0  0  0  0  0  0
   -2.0580   35.9010   21.0410 C   0  0  0  0  0  3  0  0  0  0  0  0
   -3.4180   35.7300   20.9770 C   0  0  0  0  0  3  0  0  0  0  0  0
   -4.2560   36.8020   21.1530 C   0  0  0  0  0  3  0  0  0  0  0  0
   -3.7040   38.0740   21.3980 C   0  0  0  0  0  0  0  0  0  0  0  0
   -3.6710   41.6000   21.9460 C   0  0  0  0  0  0  0  0  0  0  0  0
   -3.4000   42.4000   20.9790 O   0  0  0  0  0  1  0  0  0  0  0  0
   -4.2490   42.1390   23.0740 O   0  0  0  0  0  0  0  0  0  0  0  0
   -5.7610   39.4180   21.5690 C   0  0  0  0  0  2  0  0  0  0  0  0
   -6.2010   40.3250   20.4480 C   0  0  0  0  0  2  0  0  0  0  0  0
   -7.9520   41.2000   19.2020 C   0  0  0  0  0  1  0  0  0  0  0  0
   -7.5560   40.4630   20.3110 O   0  0  0  0  0  0  0  0  0  0  0  0
   -0.7430   40.2000   21.7620 C   0  0  0  0  0  2  0  0  0  0  0  0
    0.3030   39.6750   22.5740 C   0  0  0  0  0  0  0  0  0  0  0  0
    0.0200   39.0660   23.8150 C   0  0  0  0  0  3  0  0  0  0  0  0
    0.9600   38.5970   24.6740 C   0  0  0  0  0  3  0  0  0  0  0  0
    2.2840   38.6980   24.3640 C   0  0  0  0  0  3  0  0  0  0  0  0
    2.6340   39.2810   23.1750 C   0  0  0  0  0  0  0  0  0  0  0  0
    3.9800   39.4000   22.8490 C   0  0  0  0  0  3  0  0  0  0  0  0
    4.3950   39.9860   21.6660 C   0  0  0  0  0  3  0  0  0  0  0  0
    3.4370   40.4500   20.8220 C   0  0  0  0  0  3  0  0  0  0  0  0
    2.1150   40.3260   21.1560 C   0  0  0  0  0  3  0  0  0  0  0  0
    1.6450   39.7550   22.3090 C   0  0  0  0  0  0  0  0  0  0  0  0
 15 16  1  0
 16 14  1  0
 14 13  1  0
 25 26  1  0
 25 24  2  0
  7  6  2  0
  7  8  1  0
 11 10  1  0
  6  5  1  0
  8  9  2  0
 26 27  2  0
  5  4  2  0
  9  4  1  0
  9  1  1  0
  4  3  1  0
 13  1  1  0
  1  2  1  0
 24 23  1  0
  3  2  2  0
  3 17  1  0
  2 10  1  0
 17 18  1  0
 10 12  2  0
 27 18  1  0
 27 22  1  0
 18 19  2  0
 23 22  2  0
 22 21  1  0
 19 20  1  0
 21 20  2  0
M  RAD  8   5   2   6   2   7   2   8   2  13   3  14   3  15   2  17   3
M  CHG  2   1   1  11  -1
M  RAD  7  19   2  20   2  21   2  23   2  24   2  25   2  26   2
M  END
>  <_TriposChargeType>  (1) 
GASTEIGER

>  <SuCOS_score>  (1) 
0.3854727956069578

>  <Volume_score>  (1) 
0.50226494310021

>  <Feature_score>  (1) 
0.2686806481137056

$$$$
