DOCK.F10.P4k60/L1012_ligand.pdbt
     RDKit          3D

 30 32  0  0  0  0  0  0  0  0999 V2000
   -3.8190   41.0440   21.0990 N   0  0  0  0  0  0  0  0  0  0  0  0
   -3.5600   41.1720   20.0890 H   0  0  0  0  0  0  0  0  0  0  0  0
   -6.6190   43.6390   22.8390 C   0  0  0  0  0  0  0  0  0  0  0  0
   -5.3200   43.6480   23.2980 C   0  0  0  0  0  3  0  0  0  0  0  0
   -4.3980   42.7860   22.7130 C   0  0  0  0  0  3  0  0  0  0  0  0
   -4.7370   41.9280   21.6970 C   0  0  0  0  0  0  0  0  0  0  0  0
   -6.0410   41.9360   21.2540 C   0  0  0  0  0  0  0  0  0  0  0  0
   -6.9880   42.7750   21.8060 C   0  0  0  0  0  3  0  0  0  0  0  0
   -6.5160   40.8590   19.9620 S   0  0  2  0  0  6  0  0  0  0  0  0
   -8.0230   41.4320   19.2010 C   0  0  0  0  0  1  0  0  0  0  0  0
   -6.8170   39.4690   20.4930 O   0  0  0  0  0  0  0  0  0  0  0  0
   -5.4750   40.8000   18.8880 O   0  0  0  0  0  0  0  0  0  0  0  0
   -7.6130   44.5290   23.4280 C   0  0  0  0  0  0  0  0  0  0  0  0
   -7.6950   45.7300   23.0750 O   0  0  0  0  0  0  0  0  0  0  0  0
   -9.4240   44.9140   25.0040 C   0  0  0  0  0  1  0  0  0  0  0  0
   -8.4780   44.0540   24.3870 O   0  0  0  0  0  0  0  0  0  0  0  0
   -3.1230   39.7730   21.9830 S   0  0  2  0  0  6  0  0  0  0  0  0
   -3.4880   38.4440   21.3830 O   0  0  0  0  0  0  0  0  0  0  0  0
   -3.7040   39.7710   23.3770 O   0  0  0  0  0  0  0  0  0  0  0  0
   -1.3730   39.8220   22.0440 C   0  0  0  0  0  0  0  0  0  0  0  0
   -0.3280   40.6040   20.9570 S   0  0  0  0  0  0  0  0  0  0  0  0
    1.1700   40.2050   21.6670 C   0  0  0  0  0  0  0  0  0  0  0  0
    2.5020   40.4940   21.3380 C   0  0  0  0  0  3  0  0  0  0  0  0
    3.5390   40.0180   22.1270 C   0  0  0  0  0  3  0  0  0  0  0  0
    3.1610   39.2720   23.2110 C   0  0  0  0  0  0  0  0  0  0  0  0
    4.1780   38.7960   23.9980 F   0  0  0  0  0  0  0  0  0  0  0  0
    1.8730   38.9780   23.5510 C   0  0  0  0  0  3  0  0  0  0  0  0
    0.8090   39.4590   22.7520 C   0  0  0  0  0  0  0  0  0  0  0  0
   -0.5160   39.2580   22.9490 C   0  0  0  0  0  0  0  0  0  0  0  0
   -1.1200   38.4560   24.0990 C   0  0  0  0  0  1  0  0  0  0  0  0
 12  9  2  0
  9 10  1  6
  9 11  2  0
  9  7  1  0
  2  1  1  0
 21 22  1  0
 21 20  1  0
  1  6  1  0
 17  1  1  6
  7  6  2  0
  7  8  1  0
 23 22  2  0
 23 24  1  0
 18 17  2  0
 22 28  1  0
  6  5  1  0
  8  3  2  0
 17 20  1  0
 17 19  2  0
 20 29  2  0
 24 25  2  0
  5  4  2  0
 28 29  1  0
 28 27  2  0
  3  4  1  0
  3 13  1  0
 29 30  1  0
 14 13  2  0
 25 27  1  0
 25 26  1  0
 13 16  1  0
 16 15  1  0
M  RAD  8   4   2   5   2   8   2  10   2  15   2  23   2  24   2  27   2
M  RAD  1  30   2
M  END
>  <_TriposChargeType>  (1) 
GASTEIGER

>  <SuCOS_score>  (1) 
0.35230689556505235

>  <Volume_score>  (1) 
0.4567451110374544

>  <Feature_score>  (1) 
0.24786868009265034

$$$$
