DOCK.F36.P2hvx/L1005_ligand.pdbt
     RDKit          3D

 31 34  0  0  0  0  0  0  0  0999 V2000
   -5.6020   41.0630   20.5850 C   0  0  0  0  0  0  0  0  0  0  0  0
   -5.1400   39.9230   21.2780 C   0  0  0  0  0  0  0  0  0  0  0  0
   -6.0080   38.9290   21.1430 N   0  0  0  0  0  4  0  0  0  0  0  0
   -7.0630   39.3900   20.3640 C   0  0  0  0  0  0  0  0  0  0  0  0
   -8.2010   38.7020   20.0000 C   0  0  0  0  0  3  0  0  0  0  0  0
   -9.1530   39.3930   19.2380 C   0  0  0  0  0  3  0  0  0  0  0  0
   -8.9260   40.7010   18.8870 C   0  0  0  0  0  0  0  0  0  0  0  0
   -9.8500   41.3930   18.1360 F   0  0  0  0  0  0  0  0  0  0  0  0
   -7.7680   41.3510   19.2760 C   0  0  0  0  0  3  0  0  0  0  0  0
   -6.8030   40.7020   20.0280 C   0  0  0  0  0  0  0  0  0  0  0  0
   -3.8850   39.9650   22.0270 C   0  0  0  0  0  0  0  0  0  0  0  0
   -2.7470   39.9800   21.4420 O   0  0  0  0  0  1  0  0  0  0  0  0
   -3.8000   39.9970   23.4000 O   0  0  0  0  0  0  0  0  0  0  0  0
   -4.8940   42.3470   20.5430 C   0  0  0  0  0  2  0  0  0  0  0  0
   -4.7640   43.7190   22.6500 C   0  0  0  0  0  0  0  0  0  0  0  0
   -3.8000   43.0000   23.0580 O   0  0  0  0  0  0  0  0  0  0  0  0
   -5.3260   43.4000   21.3860 N   0  0  0  0  0  0  0  0  0  0  0  0
   -6.1350   44.0430   21.0920 H   0  0  0  0  0  0  0  0  0  0  0  0
   -4.6110   45.1660   24.6300 C   0  0  0  0  0  1  0  0  0  0  0  0
   -5.2350   44.7730   23.4290 O   0  0  0  0  0  0  0  0  0  0  0  0
   -5.9750   37.5940   21.7140 C   0  0  0  0  0  2  0  0  0  0  0  0
   -5.1550   36.6970   20.9240 C   0  0  0  0  0  0  0  0  0  0  0  0
   -3.7750   36.8320   20.9020 C   0  0  0  0  0  3  0  0  0  0  0  0
   -2.9100   35.9680   20.2700 C   0  0  0  0  0  3  0  0  0  0  0  0
   -3.4830   34.8970   19.6160 C   0  0  0  0  0  3  0  0  0  0  0  0
   -4.8280   34.7150   19.6000 C   0  0  0  0  0  0  0  0  0  0  0  0
   -5.3310   33.6600   18.8900 C   0  0  0  0  0  3  0  0  0  0  0  0
   -6.7020   33.4510   18.7960 C   0  0  0  0  0  3  0  0  0  0  0  0
   -7.5440   34.3480   19.4440 C   0  0  0  0  0  3  0  0  0  0  0  0
   -7.0450   35.4130   20.1620 C   0  0  0  0  0  3  0  0  0  0  0  0
   -5.6910   35.6150   20.2560 C   0  0  0  0  0  0  0  0  0  0  0  0
  8  7  1  0
 28 27  2  0
 28 29  1  0
  7  6  2  0
  7  9  1  0
 27 26  1  0
  6  5  1  0
  9 10  2  0
 29 30  2  0
 26 25  2  0
 26 31  1  0
 25 24  1  0
  5  4  2  0
 10  4  1  0
 10  1  1  0
 30 31  1  0
 31 22  2  0
 24 23  2  0
  4  3  1  0
 14  1  1  0
 14 17  1  0
  1  2  2  0
 23 22  1  0
 22 21  1  0
 18 17  1  0
  3  2  1  0
  3 21  1  0
  2 11  1  0
 17 15  1  0
 12 11  1  0
 11 13  2  0
 15 16  2  0
 15 20  1  0
 20 19  1  0
M  RAD  8   5   2   6   2   9   2  14   3  19   2  21   3  23   2  24   2
M  CHG  2   3   1  12  -1
M  RAD  5  25   2  27   2  28   2  29   2  30   2
M  END
>  <_TriposChargeType>  (1) 
GASTEIGER

>  <SuCOS_score>  (1) 
0.1805781512648292

>  <Volume_score>  (1) 
0.32026578073089706

>  <Feature_score>  (1) 
0.04089052179876136

$$$$
