DOCK.F36.P5yjp/L1003_ligand.pdbt
     RDKit          3D

 32 35  0  0  0  0  0  0  0  0999 V2000
   -2.0780   37.6880   22.3540 N   0  0  0  0  0  0  0  0  0  0  0  0
   -2.8120   37.9190   21.6160 H   0  0  0  0  0  0  0  0  0  0  0  0
   -1.7430   36.3430   22.5030 C   0  0  0  0  0  0  0  0  0  0  0  0
   -1.3230   35.7990   23.7070 C   0  0  0  0  0  3  0  0  0  0  0  0
   -0.9860   34.4600   23.8280 C   0  0  0  0  0  3  0  0  0  0  0  0
   -1.0580   33.6160   22.7440 C   0  0  0  0  0  0  0  0  0  0  0  0
   -1.4710   34.1370   21.5440 C   0  0  0  0  0  3  0  0  0  0  0  0
   -1.8080   35.4830   21.4280 C   0  0  0  0  0  0  0  0  0  0  0  0
   -0.7170   32.2020   22.8090 C   0  0  0  0  0  0  0  0  0  0  0  0
   -1.6900   31.2170   22.7410 C   0  0  0  0  0  3  0  0  0  0  0  0
   -1.4010   29.8710   22.8000 C   0  0  0  0  0  3  0  0  0  0  0  0
   -0.1020   29.4930   22.9310 N   0  0  0  0  0  0  0  0  0  0  0  0
    0.8560   30.4260   23.0000 C   0  0  0  0  0  3  0  0  0  0  0  0
    0.5890   31.7770   22.9420 C   0  0  0  0  0  3  0  0  0  0  0  0
   -2.2310   35.9400   20.0940 C   0  0  2  0  0  0  0  0  0  0  0  0
   -1.8000   35.1430   19.0700 F   0  0  0  0  0  0  0  0  0  0  0  0
   -1.8000   37.2640   19.9230 F   0  0  0  0  0  0  0  0  0  0  0  0
   -3.6070   36.0010   19.9990 F   0  0  0  0  0  0  0  0  0  0  0  0
   -1.4510   39.0250   23.2130 S   0  0  1  0  0  6  0  0  0  0  0  0
   -2.2020   40.2900   22.8660 O   0  0  0  0  0  0  0  0  0  0  0  0
   -1.6770   38.8480   24.7110 O   0  0  0  0  0  0  0  0  0  0  0  0
    0.3140   40.2680   20.7010 C   0  0  0  0  0  1  0  0  0  0  0  0
    1.0100   39.7440   21.9490 C   0  0  0  0  0  0  0  0  0  0  0  0
    0.2640   39.2480   22.9660 C   0  0  0  0  0  0  0  0  0  0  0  0
    1.4480   38.8020   24.1290 S   0  0  0  0  0  0  0  0  0  0  0  0
    2.8490   39.2610   23.2810 C   0  0  0  0  0  0  0  0  0  0  0  0
    4.2070   39.2000   23.5960 C   0  0  0  0  0  3  0  0  0  0  0  0
    5.1580   39.6510   22.7050 C   0  0  0  0  0  3  0  0  0  0  0  0
    4.6630   40.1490   21.5180 C   0  0  0  0  0  0  0  0  0  0  0  0
    5.5990   40.6000   20.6280 F   0  0  0  0  0  0  0  0  0  0  0  0
    3.3360   40.2130   21.2000 C   0  0  0  0  0  3  0  0  0  0  0  0
    2.3610   39.7530   22.1080 C   0  0  0  0  0  0  0  0  0  0  0  0
 15 16  1  6
 17 15  1  0
 18 15  1  0
 15  8  1  0
 30 29  1  0
 22 23  1  0
 31 29  1  0
 31 32  2  0
  8  7  2  0
  8  3  1  0
 29 28  2  0
  7  6  1  0
  2  1  1  0
 23 32  1  0
 23 24  2  0
 32 26  1  0
  1  3  1  0
 19  1  1  6
  3  4  2  0
 28 27  1  0
 10 11  2  0
 10  9  1  0
  6  9  1  0
  6  5  2  0
 11 12  1  0
  9 14  2  0
 20 19  2  0
 12 13  2  0
 14 13  1  0
 24 19  1  0
 24 25  1  0
 19 21  2  0
 26 27  2  0
 26 25  1  0
  4  5  1  0
M  RAD  8   4   2   5   2   7   2  10   2  11   2  13   2  14   2  22   2
M  RAD  3  27   2  28   2  31   2
M  END
>  <_TriposChargeType>  (1) 
GASTEIGER

>  <SuCOS_score>  (1) 
0.3035364117746997

>  <Volume_score>  (1) 
0.37831858407079644

>  <Feature_score>  (1) 
0.228754239478603

$$$$
