DOCK.F36.P5yjp/L1009_ligand.pdbt
     RDKit          3D

 34 38  0  0  0  0  0  0  0  0999 V2000
   -1.4770   38.3360   21.5140 C   0  0  0  0  0  3  0  0  0  0  0  0
   -2.2470   35.8000   19.7170 C   0  0  0  0  0  1  0  0  0  0  0  0
   -1.7700   35.8090   21.1320 C   0  0  0  0  0  0  0  0  0  0  0  0
   -1.4420   36.8970   21.9120 C   0  0  0  0  0  0  0  0  0  0  0  0
   -1.0810   36.3780   23.0980 N   0  0  0  0  0  0  0  0  0  0  0  0
   -1.1650   35.0480   23.1050 C   0  0  0  0  0  0  0  0  0  0  0  0
   -0.9100   34.0610   24.0640 C   0  0  0  0  0  3  0  0  0  0  0  0
   -1.1090   32.7400   23.7210 C   0  0  0  0  0  3  0  0  0  0  0  0
   -1.5450   32.3440   22.4780 C   0  0  0  0  0  0  0  0  0  0  0  0
   -1.7240   31.0180   22.2000 F   0  0  0  0  0  0  0  0  0  0  0  0
   -1.7950   33.3170   21.5380 C   0  0  0  0  0  3  0  0  0  0  0  0
   -1.6030   34.6520   21.8610 C   0  0  0  0  0  0  0  0  0  0  0  0
   -0.7640   36.9180   23.9520 H   0  0  0  0  0  0  0  0  0  0  0  0
   -2.5200   39.1060   22.2230 C   0  0  0  0  0  0  0  0  0  0  0  0
   -3.5120   39.8310   21.7590 C   0  0  0  0  0  0  0  0  0  0  0  0
   -3.8390   40.0600   20.4000 O   0  0  0  0  0  0  0  0  0  0  0  0
   -4.2940   40.4120   22.8690 C   0  0  0  0  0  3  0  0  0  0  0  0
   -3.7010   39.9480   24.0420 O   0  0  0  0  0  0  0  0  0  0  0  0
   -2.6200   39.1650   23.6980 C   0  0  0  0  0  0  0  0  0  0  0  0
   -1.8660   38.6100   24.5370 O   0  0  0  0  0  0  0  0  0  0  0  0
   -3.8700   41.0480   20.1370 H   0  0  0  0  0  0  0  0  0  0  0  0
   -5.7300   39.9200   22.8700 C   0  0  0  0  0  2  0  0  0  0  0  0
   -6.4760   40.5800   21.7680 C   0  0  0  0  0  0  0  0  0  0  0  0
   -7.1650   39.8290   20.8420 C   0  0  0  0  0  3  0  0  0  0  0  0
   -7.8700   40.4120   19.7990 C   0  0  0  0  0  3  0  0  0  0  0  0
   -7.8880   41.8000   19.6730 C   0  0  0  0  0  3  0  0  0  0  0  0
   -7.1970   42.5350   20.6030 C   0  0  0  0  0  3  0  0  0  0  0  0
   -6.4980   41.9530   21.6380 C   0  0  0  0  0  3  0  0  0  0  0  0
   -0.1430   38.9560   21.5970 C   0  0  0  0  0  0  0  0  0  0  0  0
    0.9050   38.3680   22.3050 C   0  0  0  0  0  3  0  0  0  0  0  0
    2.1270   39.0030   22.3480 C   0  0  0  0  0  3  0  0  0  0  0  0
    2.3460   40.2040   21.7100 C   0  0  0  0  0  3  0  0  0  0  0  0
    1.3040   40.7980   21.0010 C   0  0  0  0  0  3  0  0  0  0  0  0
    0.1050   40.1580   20.9700 C   0  0  0  0  0  3  0  0  0  0  0  0
 26 25  1  0
 26 27  2  0
  2  3  1  0
 25 24  2  0
 21 16  1  0
 16 15  1  0
 27 28  1  0
 24 23  1  0
 34 33  2  0
 34 29  1  0
 33 32  1  0
  3 12  1  0
  3  4  2  0
  1 29  1  0
  1  4  1  0
  1 14  1  0
 11 12  2  0
 11  9  1  0
 29 30  2  0
 28 23  2  0
 32 31  2  0
 15 14  2  0
 15 17  1  0
 23 22  1  0
 12  6  1  0
  4  5  1  0
 10  9  1  0
 14 19  1  0
 30 31  1  0
  9  8  2  0
 17 22  1  0
 17 18  1  0
  5  6  1  0
  5 13  1  0
  6  7  2  0
 19 18  1  0
 19 20  2  0
  8  7  1  0
M  RAD  8   1   2   2   2   7   2   8   2  11   2  17   2  22   3  24   2
M  RAD  8  25   2  26   2  27   2  28   2  30   2  31   2  32   2  33   2
M  RAD  1  34   2
M  END
>  <_TriposChargeType>  (1) 
GASTEIGER

>  <SuCOS_score>  (1) 
0.21526289163254791

>  <Volume_score>  (1) 
0.3960088691796009

>  <Feature_score>  (1) 
0.03451691408549497

$$$$
