DOCK.F36.P5yjp/L1004_ligand.pdbt
     RDKit          3D

 33 36  0  0  0  0  0  0  0  0999 V2000
   -1.3860   38.9300   22.5120 C   0  0  0  0  0  3  0  0  0  0  0  0
   -1.5940   36.4230   23.0770 C   0  0  0  0  0  0  0  0  0  0  0  0
   -1.5240   37.5170   22.2240 C   0  0  0  0  0  0  0  0  0  0  0  0
   -1.6720   37.0390   20.9560 N   0  0  0  0  0  0  0  0  0  0  0  0
   -1.8340   35.7110   20.9430 C   0  0  0  0  0  0  0  0  0  0  0  0
   -2.0160   34.7900   19.9280 C   0  0  0  0  0  3  0  0  0  0  0  0
   -2.1550   33.4440   20.1970 C   0  0  0  0  0  3  0  0  0  0  0  0
   -2.1080   33.0300   21.5110 C   0  0  0  0  0  0  0  0  0  0  0  0
   -2.2470   31.7130   21.8000 F   0  0  0  0  0  0  0  0  0  0  0  0
   -1.9240   33.9740   22.5190 C   0  0  0  0  0  3  0  0  0  0  0  0
   -1.7840   35.3220   22.2870 C   0  0  0  0  0  0  0  0  0  0  0  0
   -1.6680   37.6050   20.0520 H   0  0  0  0  0  0  0  0  0  0  0  0
   -2.3390   35.6890   25.3710 C   0  0  0  0  0  1  0  0  0  0  0  0
   -1.4240   36.5230   24.5120 C   0  0  0  0  0  3  0  0  0  0  0  0
    0.0010   36.0240   24.8940 C   0  0  0  0  0  1  0  0  0  0  0  0
   -0.0190   39.4840   22.1500 C   0  0  0  0  0  0  0  0  0  0  0  0
    1.0140   39.7150   22.9330 C   0  0  0  0  0  0  0  0  0  0  0  0
    0.9880   39.4580   24.3150 O   0  0  0  0  0  0  0  0  0  0  0  0
    2.1690   40.2620   22.1840 C   0  0  0  0  0  3  0  0  0  0  0  0
    1.7100   40.3750   20.8400 N   0  0  0  0  0  0  0  0  0  0  0  0
    0.3810   39.8920   20.8070 C   0  0  0  0  0  0  0  0  0  0  0  0
   -0.4000   39.8000   19.8000 O   0  0  0  0  0  0  0  0  0  0  0  0
    1.6870   38.8440   24.7260 H   0  0  0  0  0  0  0  0  0  0  0  0
    2.2650   40.7460   20.0430 H   0  0  0  0  0  0  0  0  0  0  0  0
    3.4010   39.4000   22.3190 C   0  0  0  0  0  3  0  0  0  0  0  0
    4.4590   39.8060   21.3110 C   0  0  0  0  0  1  0  0  0  0  0  0
    3.9720   39.6000   23.6970 C   0  0  0  0  0  1  0  0  0  0  0  0
   -2.4680   39.8310   22.1190 C   0  0  0  0  0  0  0  0  0  0  0  0
   -2.4750   41.1860   22.4000 C   0  0  0  0  0  3  0  0  0  0  0  0
   -3.5040   42.0120   21.9920 C   0  0  0  0  0  3  0  0  0  0  0  0
   -4.5780   41.5180   21.2830 C   0  0  0  0  0  3  0  0  0  0  0  0
   -4.5810   40.1730   21.0010 C   0  0  0  0  0  3  0  0  0  0  0  0
   -3.5530   39.3660   21.4100 C   0  0  0  0  0  3  0  0  0  0  0  0
 22 21  2  0
  6  7  2  0
  6  5  1  0
 24 20  1  0
 12  4  1  0
  7  8  1  0
 21 20  1  0
 21 16  1  0
 20 19  1  0
  5  4  1  0
  5 11  2  0
  4  3  1  0
 32 31  2  0
 32 33  1  0
 31 30  1  0
 26 25  1  0
 33 28  2  0
  8  9  1  0
  8 10  2  0
 30 29  2  0
 28 29  1  0
 28  1  1  0
 16  1  1  0
 16 17  2  0
 19 25  1  0
 19 17  1  0
  3  1  1  0
  3  2  2  0
 11 10  1  0
 11  2  1  0
 25 27  1  0
 17 18  1  0
  2 14  1  0
 18 23  1  0
 14 15  1  0
 14 13  1  0
M  RAD  8   1   2   6   2   7   2  10   2  13   2  14   2  15   2  19   2
M  RAD  8  25   2  26   2  27   2  29   2  30   2  31   2  32   2  33   2
M  END
>  <_TriposChargeType>  (1) 
GASTEIGER

>  <SuCOS_score>  (1) 
0.32146754448229137

>  <Volume_score>  (1) 
0.425461376947729

>  <Feature_score>  (1) 
0.21747371201685373

$$$$
