DOCK.F36.P5yjp/L1008_ligand.pdbt
     RDKit          3D

 32 36  0  0  0  0  0  0  0  0999 V2000
   -3.2570   39.6500   22.8170 C   0  0  0  0  0  3  0  0  0  0  0  0
   -1.5970   34.1040   18.0170 C   0  0  0  0  0  1  0  0  0  0  0  0
   -2.4720   34.8640   18.9620 C   0  0  0  0  0  0  0  0  0  0  0  0
   -3.7490   34.4030   19.1920 C   0  0  0  0  0  3  0  0  0  0  0  0
   -4.5340   35.1270   20.0710 C   0  0  0  0  0  3  0  0  0  0  0  0
   -4.0380   36.2720   20.6880 C   0  0  0  0  0  0  0  0  0  0  0  0
   -4.6900   37.3910   21.7970 S   0  0  0  0  0  0  0  0  0  0  0  0
   -3.3560   38.4340   21.9680 C   0  0  0  0  0  0  0  0  0  0  0  0
   -2.4210   37.8670   21.1380 C   0  0  0  0  0  0  0  0  0  0  0  0
   -1.0530   38.5390   21.0220 C   0  0  0  0  0  1  0  0  0  0  0  0
   -2.7730   36.7510   20.4770 C   0  0  0  0  0  0  0  0  0  0  0  0
   -2.0070   35.9880   19.5800 C   0  0  0  0  0  3  0  0  0  0  0  0
   -4.1560   40.7480   22.3710 C   0  0  0  0  0  0  0  0  0  0  0  0
   -4.0750   41.8820   21.7510 C   0  0  0  0  0  0  0  0  0  0  0  0
   -3.0000   42.6000   21.2000 O   0  0  0  0  0  0  0  0  0  0  0  0
   -5.4920   42.1570   21.8250 C   0  0  1  0  0  0  0  0  0  0  0  0
   -6.2580   42.0890   20.5170 C   0  0  0  0  0  1  0  0  0  0  0  0
   -5.5790   40.8890   22.5190 C   0  0  0  0  0  0  0  0  0  0  0  0
   -6.5370   40.2090   23.0360 O   0  0  0  0  0  0  0  0  0  0  0  0
   -2.8550   42.4960   20.2050 H   0  0  0  0  0  0  0  0  0  0  0  0
   -5.8970   43.2840   22.6970 C   0  0  0  0  0  0  0  0  0  0  0  0
   -5.0200   43.9160   23.5450 C   0  0  0  0  0  3  0  0  0  0  0  0
   -5.4060   44.9680   24.3590 C   0  0  0  0  0  3  0  0  0  0  0  0
   -6.7020   45.4000   24.3260 C   0  0  0  0  0  3  0  0  0  0  0  0
   -7.5920   44.7760   23.4800 C   0  0  0  0  0  3  0  0  0  0  0  0
   -7.2000   43.7200   22.6650 C   0  0  0  0  0  3  0  0  0  0  0  0
   -3.6770   39.2640   24.1920 C   0  0  0  0  0  0  0  0  0  0  0  0
   -4.5620   40.0250   24.9250 C   0  0  0  0  0  3  0  0  0  0  0  0
   -4.9090   39.6260   26.1760 C   0  0  0  0  0  3  0  0  0  0  0  0
   -4.4040   38.4910   26.7240 C   0  0  0  0  0  3  0  0  0  0  0  0
   -3.5080   37.7250   25.9760 C   0  0  0  0  0  3  0  0  0  0  0  0
   -3.1350   38.1000   24.7070 C   0  0  0  0  0  3  0  0  0  0  0  0
  2  3  1  0
  3  4  2  0
  3 12  1  0
  4  5  1  0
 12 11  2  0
  5  6  2  0
 20 15  1  0
 11  6  1  0
 11  9  1  0
 16 17  1  6
  6  7  1  0
 10  9  1  0
  9  8  2  0
 15 14  1  0
 14 16  1  0
 14 13  2  0
  7  8  1  0
 16 18  1  0
 16 21  1  0
  8  1  1  0
 13 18  1  0
 13  1  1  0
 18 19  2  0
 26 21  1  0
 26 25  2  0
 21 22  2  0
  1 27  1  0
 25 24  1  0
 22 23  1  0
 27 32  1  0
 27 28  2  0
 24 23  2  0
 32 31  2  0
 28 29  1  0
 31 30  1  0
 29 30  2  0
M  RAD  8   1   2   2   2   4   2   5   2  10   2  12   2  17   2  22   2
M  RAD  8  23   2  24   2  25   2  26   2  28   2  29   2  30   2  31   2
M  RAD  1  32   2
M  END
>  <_TriposChargeType>  (1) 
GASTEIGER

>  <SuCOS_score>  (1) 
0.2627942494535063

>  <Volume_score>  (1) 
0.4367179714317352

>  <Feature_score>  (1) 
0.08887052747527743

$$$$
