DOCK.F36.P5yjp/L1010_ligand.pdbt
     RDKit          3D

 24 27  0  0  0  0  0  0  0  0999 V2000
    1.2620   40.2510   21.5260 C   0  0  0  0  0  0  0  0  0  0  0  0
    2.5350   40.3420   21.0020 C   0  0  0  0  0  3  0  0  0  0  0  0
    3.3970   39.9170   21.9840 C   0  0  0  0  0  0  0  0  0  0  0  0
    4.7930   39.7960   22.0180 C   0  0  0  0  0  3  0  0  0  0  0  0
    5.4490   39.3380   23.1350 C   0  0  0  0  0  3  0  0  0  0  0  0
    4.7030   39.0000   24.2260 C   0  0  0  0  0  3  0  0  0  0  0  0
    3.3300   39.1180   24.1960 C   0  0  0  0  0  3  0  0  0  0  0  0
    2.6510   39.5810   23.0710 C   0  0  0  0  0  0  0  0  0  0  0  0
    1.3590   39.7870   22.7830 N   0  0  0  0  0  0  0  0  0  0  0  0
   -0.2000   40.0000   19.7310 O   0  0  0  0  0  1  0  0  0  0  0  0
    0.0540   40.6140   20.7880 C   0  0  0  0  0  0  0  0  0  0  0  0
   -0.8220   41.6010   21.2000 O   0  0  0  0  0  0  0  0  0  0  0  0
    0.2770   39.5460   23.6780 C   0  0  0  0  0  2  0  0  0  0  0  0
    0.1990   38.1780   24.1910 C   0  0  0  0  0  0  0  0  0  0  0  0
    0.6920   37.8000   25.4160 C   0  0  0  0  0  3  0  0  0  0  0  0
    0.5610   36.4820   25.7910 C   0  0  0  0  0  3  0  0  0  0  0  0
   -0.0410   35.5340   24.9910 C   0  0  0  0  0  3  0  0  0  0  0  0
   -0.5450   35.9100   23.7470 C   0  0  0  0  0  0  0  0  0  0  0  0
   -1.1510   34.9780   22.9320 C   0  0  0  0  0  3  0  0  0  0  0  0
   -1.6380   35.3830   21.7090 C   0  0  0  0  0  3  0  0  0  0  0  0
   -1.5280   36.6800   21.3000 C   0  0  0  0  0  0  0  0  0  0  0  0
   -1.9960   37.1200   20.0980 F   0  0  0  0  0  0  0  0  0  0  0  0
   -0.9190   37.5770   22.1380 C   0  0  0  0  0  3  0  0  0  0  0  0
   -0.4040   37.2280   23.3920 C   0  0  0  0  0  0  0  0  0  0  0  0
 10 11  1  0
 22 21  1  0
 11 12  2  0
 11  1  1  0
  2  1  2  0
  2  3  1  0
 21 20  2  0
 21 23  1  0
  1  9  1  0
 20 19  1  0
  3  4  2  0
  3  8  1  0
  4  5  1  0
 23 24  2  0
  9  8  1  0
  9 13  1  0
 19 18  2  0
  8  7  2  0
  5  6  2  0
 24 18  1  0
 24 14  1  0
 13 14  1  0
 18 17  1  0
 14 15  2  0
  7  6  1  0
 17 16  2  0
 15 16  1  0
M  RAD  8   2   2   4   2   5   2   6   2   7   2  13   3  15   2  16   2
M  CHG  1  10  -1
M  RAD  4  17   2  19   2  20   2  23   2
M  END
>  <_TriposChargeType>  (1) 
GASTEIGER

>  <SuCOS_score>  (1) 
0.22532956390904874

>  <Volume_score>  (1) 
0.31533429426765713

>  <Feature_score>  (1) 
0.1353248335504403

$$$$
