DOCK.F36.P4k60/L1004_ligand.pdbt
     RDKit          3D

 33 36  0  0  0  0  0  0  0  0999 V2000
   -0.4490   38.1930   22.4970 C   0  0  0  0  0  3  0  0  0  0  0  0
   -2.9110   38.3190   21.7430 C   0  0  0  0  0  0  0  0  0  0  0  0
   -1.6880   38.8490   22.1340 C   0  0  0  0  0  0  0  0  0  0  0  0
   -1.8440   40.2030   22.1870 N   0  0  0  0  0  0  0  0  0  0  0  0
   -3.0870   40.5720   21.8570 C   0  0  0  0  0  0  0  0  0  0  0  0
   -3.7150   41.7990   21.7630 C   0  0  0  0  0  3  0  0  0  0  0  0
   -5.0390   41.9010   21.3850 C   0  0  0  0  0  3  0  0  0  0  0  0
   -5.7290   40.7430   21.1000 C   0  0  0  0  0  0  0  0  0  0  0  0
   -7.0310   40.8170   20.7310 F   0  0  0  0  0  0  0  0  0  0  0  0
   -5.0770   39.5150   21.2000 C   0  0  0  0  0  3  0  0  0  0  0  0
   -3.7620   39.3780   21.5750 C   0  0  0  0  0  0  0  0  0  0  0  0
   -1.1040   40.9240   22.4510 H   0  0  0  0  0  0  0  0  0  0  0  0
   -4.4920   36.4880   21.0340 C   0  0  0  0  0  1  0  0  0  0  0  0
   -3.1280   36.9040   21.5210 C   0  0  0  0  0  3  0  0  0  0  0  0
   -2.1670   36.4090   20.3990 C   0  0  0  0  0  1  0  0  0  0  0  0
    0.7810   39.0340   22.2080 C   0  0  0  0  0  0  0  0  0  0  0  0
    1.9010   39.1260   22.8950 C   0  0  0  0  0  0  0  0  0  0  0  0
    2.1240   38.4000   24.0790 O   0  0  0  0  0  0  0  0  0  0  0  0
    2.8630   40.0640   22.2720 C   0  0  0  0  0  3  0  0  0  0  0  0
    2.1830   40.5720   21.1270 N   0  0  0  0  0  0  0  0  0  0  0  0
    0.9190   39.9410   21.0730 C   0  0  0  0  0  0  0  0  0  0  0  0
   -0.0030   40.0940   20.2010 O   0  0  0  0  0  0  0  0  0  0  0  0
    2.9350   37.7910   24.1510 H   0  0  0  0  0  0  0  0  0  0  0  0
    2.5650   41.2760   20.4630 H   0  0  0  0  0  0  0  0  0  0  0  0
    4.1760   39.4000   21.9350 C   0  0  0  0  0  3  0  0  0  0  0  0
    4.8030   40.0320   20.7070 C   0  0  0  0  0  1  0  0  0  0  0  0
    5.1190   39.6000   23.0920 C   0  0  0  0  0  1  0  0  0  0  0  0
   -0.3670   37.5260   23.7960 C   0  0  0  0  0  0  0  0  0  0  0  0
   -0.6000   38.1650   25.0010 C   0  0  0  0  0  3  0  0  0  0  0  0
   -0.5360   37.4960   26.2080 C   0  0  0  0  0  3  0  0  0  0  0  0
   -0.2340   36.1530   26.2650 C   0  0  0  0  0  3  0  0  0  0  0  0
   -0.0000   35.5090   25.0740 C   0  0  0  0  0  3  0  0  0  0  0  0
   -0.0680   36.1850   23.8840 C   0  0  0  0  0  3  0  0  0  0  0  0
 22 21  2  0
 15 14  1  0
 24 20  1  0
 26 25  1  0
  9  8  1  0
 13 14  1  0
 21 20  1  0
 21 16  1  0
  8 10  1  0
  8  7  2  0
 20 19  1  0
 10 11  2  0
  7  6  1  0
 14  2  1  0
 11  2  1  0
 11  5  1  0
  2  3  2  0
  6  5  2  0
  5  4  1  0
 25 19  1  0
 25 27  1  0
  3  4  1  0
  3  1  1  0
  4 12  1  0
 16  1  1  0
 16 17  2  0
 19 17  1  0
  1 28  1  0
 17 18  1  0
 28 33  1  0
 28 29  2  0
 33 32  2  0
 18 23  1  0
 29 30  1  0
 32 31  1  0
 30 31  2  0
M  RAD  8   1   2   6   2   7   2  10   2  13   2  14   2  15   2  19   2
M  RAD  8  25   2  26   2  27   2  29   2  30   2  31   2  32   2  33   2
M  END
>  <_TriposChargeType>  (1) 
GASTEIGER

>  <SuCOS_score>  (1) 
0.2816832838034232

>  <Volume_score>  (1) 
0.4822060123784262

>  <Feature_score>  (1) 
0.0811605552284202

$$$$
