DOCK.F36.P4k60/L1001_ligand.pdbt
     RDKit          3D

 32 35  0  0  0  0  0  0  0  0999 V2000
   -4.2570   38.7580   21.4950 C   0  0  0  0  0  0  0  0  0  0  0  0
   -3.1570   39.6200   21.6170 C   0  0  0  0  0  0  0  0  0  0  0  0
   -2.0400   38.9570   21.3030 N   0  0  0  0  0  4  0  0  0  0  0  0
   -2.3970   37.7020   20.9860 C   0  0  0  0  0  0  0  0  0  0  0  0
   -1.6110   36.6050   20.5850 C   0  0  0  0  0  3  0  0  0  0  0  0
   -2.1720   35.3970   20.3030 C   0  0  0  0  0  3  0  0  0  0  0  0
   -3.5330   35.2220   20.4050 C   0  0  0  0  0  0  0  0  0  0  0  0
   -4.1330   34.0410   20.1340 F   0  0  0  0  0  0  0  0  0  0  0  0
   -4.2940   36.3120   20.8010 C   0  0  0  0  0  3  0  0  0  0  0  0
   -3.7500   37.5580   21.0960 C   0  0  0  0  0  0  0  0  0  0  0  0
   -3.2760   41.0100   22.0290 C   0  0  0  0  0  0  0  0  0  0  0  0
   -3.8000   41.3020   23.1100 O   0  0  0  0  0  1  0  0  0  0  0  0
   -2.8010   42.0000   21.2030 O   0  0  0  0  0  0  0  0  0  0  0  0
   -5.6300   39.1450   21.7560 C   0  0  0  0  0  2  0  0  0  0  0  0
   -6.6100   40.5080   19.9830 C   0  0  0  0  0  0  0  0  0  0  0  0
   -5.9140   41.5060   20.3200 O   0  0  0  0  0  0  0  0  0  0  0  0
   -6.5400   39.2670   20.6720 N   0  0  0  0  0  0  0  0  0  0  0  0
   -7.3880   38.1780   20.2000 C   0  0  0  0  0  1  0  0  0  0  0  0
   -7.4600   40.6420   18.9090 O   0  0  0  0  0  0  0  0  0  0  0  0
   -9.7080   40.9510   18.2080 C   0  0  0  0  0  1  0  0  0  0  0  0
   -8.4860   41.6050   18.8090 C   0  0  0  0  0  2  0  0  0  0  0  0
   -0.6900   39.4370   21.2890 C   0  0  0  0  0  2  0  0  0  0  0  0
    0.0480   39.1280   22.5340 C   0  0  0  0  0  0  0  0  0  0  0  0
   -0.5510   38.6950   23.6990 C   0  0  0  0  0  3  0  0  0  0  0  0
    0.1860   38.4150   24.8490 C   0  0  0  0  0  3  0  0  0  0  0  0
    1.5620   38.5880   24.7880 C   0  0  0  0  0  3  0  0  0  0  0  0
    2.2030   39.0210   23.6430 C   0  0  0  0  0  0  0  0  0  0  0  0
    3.5670   39.1860   23.6010 C   0  0  0  0  0  3  0  0  0  0  0  0
    4.1680   39.6180   22.4460 C   0  0  0  0  0  3  0  0  0  0  0  0
    3.4530   39.8960   21.3060 C   0  0  0  0  0  3  0  0  0  0  0  0
    2.0770   39.7190   21.3770 C   0  0  0  0  0  3  0  0  0  0  0  0
    1.4180   39.2890   22.5110 C   0  0  0  0  0  0  0  0  0  0  0  0
 20 21  1  0
 21 19  1  0
 19 15  1  0
 15 16  2  0
 15 17  1  0
  8  7  1  0
 18 17  1  0
  6  7  2  0
  6  5  1  0
  7  9  1  0
  5  4  2  0
 17 14  1  0
  9 10  2  0
  4 10  1  0
  4  3  1  0
 10  1  1  0
 13 11  2  0
 22  3  1  0
 22 23  1  0
  3  2  1  0
 30 31  1  0
 30 29  2  0
 31 32  2  0
  1  2  2  0
  1 14  1  0
  2 11  1  0
 11 12  1  0
 29 28  1  0
 32 23  1  0
 32 27  1  0
 23 24  2  0
 28 27  2  0
 27 26  1  0
 24 25  1  0
 26 25  2  0
M  RAD  8   5   2   6   2   9   2  14   3  18   2  20   2  21   3  22   3
M  CHG  2   3   1  12  -1
M  RAD  7  24   2  25   2  26   2  28   2  29   2  30   2  31   2
M  END
>  <_TriposChargeType>  (1) 
GASTEIGER

>  <SuCOS_score>  (1) 
0.34899373658616134

>  <Volume_score>  (1) 
0.5189481825212683

>  <Feature_score>  (1) 
0.17903929065105437

$$$$
