DOCK.F36.P4k60/L1015_ligand.pdbt
     RDKit          3D

 32 35  0  0  0  0  0  0  0  0999 V2000
   -2.1340   36.9920   22.4350 N   0  0  0  0  0  0  0  0  0  0  0  0
   -2.9930   36.9570   21.8440 H   0  0  0  0  0  0  0  0  0  0  0  0
   -1.4210   35.8030   22.6630 C   0  0  0  0  0  0  0  0  0  0  0  0
   -0.4710   35.6080   23.6470 C   0  0  0  0  0  3  0  0  0  0  0  0
    0.1990   34.4180   23.8530 C   0  0  0  0  0  3  0  0  0  0  0  0
   -0.0750   33.3470   23.0460 C   0  0  0  0  0  0  0  0  0  0  0  0
   -1.0190   33.5080   22.0540 C   0  0  0  0  0  3  0  0  0  0  0  0
   -1.6700   34.6770   21.8590 C   0  0  0  0  0  0  0  0  0  0  0  0
    0.5920   32.0520   23.1990 C   0  0  0  0  0  0  0  0  0  0  0  0
   -0.1040   30.8580   23.1510 C   0  0  0  0  0  3  0  0  0  0  0  0
    0.5650   29.6500   23.3000 C   0  0  0  0  0  3  0  0  0  0  0  0
    1.8830   29.6480   23.4920 N   0  0  0  0  0  0  0  0  0  0  0  0
    2.6030   30.7850   23.5470 C   0  0  0  0  0  3  0  0  0  0  0  0
    1.9500   31.9800   23.4000 C   0  0  0  0  0  3  0  0  0  0  0  0
   -2.8550   34.8290   20.5890 S   0  0  1  0  0  6  0  0  0  0  0  0
   -2.0000   35.0000   19.0440 C   0  0  0  0  0  1  0  0  0  0  0  0
   -3.7100   33.5960   20.5480 O   0  0  0  0  0  0  0  0  0  0  0  0
   -3.7810   35.9890   20.8350 O   0  0  0  0  0  0  0  0  0  0  0  0
   -1.6350   38.4750   23.0940 S   0  0  2  0  0  6  0  0  0  0  0  0
   -1.7840   38.4000   24.6080 O   0  0  0  0  0  0  0  0  0  0  0  0
   -2.5540   39.5840   22.6540 O   0  0  0  0  0  0  0  0  0  0  0  0
    1.0430   38.2870   24.8720 C   0  0  0  0  0  1  0  0  0  0  0  0
    1.1600   38.7910   23.4390 C   0  0  0  0  0  0  0  0  0  0  0  0
    0.0210   38.8680   22.6930 C   0  0  0  0  0  0  0  0  0  0  0  0
    0.5600   39.4570   21.2000 S   0  0  0  0  0  0  0  0  0  0  0  0
    2.2360   39.5990   21.5490 C   0  0  0  0  0  0  0  0  0  0  0  0
    3.3380   40.0230   20.8000 C   0  0  0  0  0  3  0  0  0  0  0  0
    4.6010   40.0310   21.3520 C   0  0  0  0  0  3  0  0  0  0  0  0
    4.6750   39.6000   22.6590 C   0  0  0  0  0  0  0  0  0  0  0  0
    5.9160   39.6000   23.2240 F   0  0  0  0  0  0  0  0  0  0  0  0
    3.6110   39.1820   23.4040 C   0  0  0  0  0  3  0  0  0  0  0  0
    2.3110   39.1700   22.8450 C   0  0  0  0  0  0  0  0  0  0  0  0
 15 16  1  6
 17 15  2  0
 15 18  2  0
 15  8  1  0
 27 28  2  0
 27 26  1  0
 25 26  1  0
 25 24  1  0
 28 29  1  0
 26 32  2  0
  2  1  1  0
  8  7  2  0
  8  3  1  0
  7  6  1  0
  1  3  1  0
 19  1  1  6
 21 19  2  0
 29 30  1  0
 29 31  2  0
  3  4  2  0
 24 19  1  0
 24 23  2  0
 32 31  1  0
 32 23  1  0
  6  9  1  0
  6  5  2  0
 19 20  2  0
 10  9  2  0
 10 11  1  0
  9 14  1  0
 11 12  2  0
 14 13  2  0
 23 22  1  0
 12 13  1  0
  4  5  1  0
M  RAD  8   4   2   5   2   7   2  10   2  11   2  13   2  14   2  16   2
M  RAD  4  22   2  27   2  28   2  31   2
M  END
>  <_TriposChargeType>  (1) 
GASTEIGER

>  <SuCOS_score>  (1) 
0.23827358343548782

>  <Volume_score>  (1) 
0.35310329621871894

>  <Feature_score>  (1) 
0.12344387065225669

$$$$
