DOCK.F36.P4k60/L1016_ligand.pdbt
     RDKit          3D

 29 32  0  0  0  0  0  0  0  0999 V2000
   -4.4060   39.0550   21.5900 C   0  0  0  0  0  0  0  0  0  0  0  0
   -3.2620   39.8700   21.6000 C   0  0  0  0  0  0  0  0  0  0  0  0
   -2.2070   39.1600   21.2580 N   0  0  0  0  0  4  0  0  0  0  0  0
   -2.6760   37.8440   21.0220 C   0  0  0  0  0  0  0  0  0  0  0  0
   -2.0460   36.6950   20.6420 C   0  0  0  0  0  3  0  0  0  0  0  0
   -2.7140   35.5180   20.4660 C   0  0  0  0  0  3  0  0  0  0  0  0
   -4.0770   35.4820   20.6780 C   0  0  0  0  0  3  0  0  0  0  0  0
   -4.7540   36.6100   21.0600 C   0  0  0  0  0  3  0  0  0  0  0  0
   -4.0240   37.7950   21.2280 C   0  0  0  0  0  0  0  0  0  0  0  0
   -3.3110   41.2860   21.9420 C   0  0  0  0  0  0  0  0  0  0  0  0
   -2.8920   42.1940   21.1970 O   0  0  0  0  0  1  0  0  0  0  0  0
   -3.8490   41.6900   23.1520 O   0  0  0  0  0  0  0  0  0  0  0  0
   -5.7940   39.4500   21.9170 C   0  0  0  0  0  2  0  0  0  0  0  0
   -7.7440   41.1950   19.0730 C   0  0  0  0  0  1  0  0  0  0  0  0
   -6.9760   40.9850   20.2770 N   0  0  0  0  0  0  0  0  0  0  0  0
   -6.5830   42.1020   21.0850 C   0  0  0  0  0  1  0  0  0  0  0  0
   -6.5890   39.6830   20.6770 C   0  0  0  0  0  0  0  0  0  0  0  0
   -6.9070   38.6780   19.9860 O   0  0  0  0  0  0  0  0  0  0  0  0
   -0.8400   39.4130   21.0140 C   0  0  0  0  0  2  0  0  0  0  0  0
    0.1230   39.2240   22.1640 C   0  0  0  0  0  0  0  0  0  0  0  0
   -0.3920   38.9670   23.4090 C   0  0  0  0  0  3  0  0  0  0  0  0
    0.9810   38.9720   24.4120 S   0  0  0  0  0  0  0  0  0  0  0  0
    2.1820   39.2920   23.2520 C   0  0  0  0  0  0  0  0  0  0  0  0
    3.5790   39.3980   23.3210 C   0  0  0  0  0  3  0  0  0  0  0  0
    4.3260   39.6080   22.1880 C   0  0  0  0  0  3  0  0  0  0  0  0
    3.6250   39.7070   21.0170 C   0  0  0  0  0  0  0  0  0  0  0  0
    4.3440   39.9170   19.8810 F   0  0  0  0  0  0  0  0  0  0  0  0
    2.2670   39.6070   20.9340 C   0  0  0  0  0  3  0  0  0  0  0  0
    1.4710   39.3930   22.0850 C   0  0  0  0  0  0  0  0  0  0  0  0
 14 15  1  0
 27 26  1  0
 18 17  2  0
 15 17  1  0
 15 16  1  0
  6  5  2  0
  6  7  1  0
  5  4  1  0
 17 13  1  0
  7  8  2  0
 28 26  1  0
 28 29  2  0
 19  3  1  0
 19 20  1  0
 26 25  2  0
  4  9  2  0
  4  3  1  0
  8  9  1  0
 11 10  1  0
  9  1  1  0
  3  2  1  0
  1  2  2  0
  1 13  1  0
  2 10  1  0
 10 12  2  0
 29 20  1  0
 29 23  1  0
 20 21  2  0
 25 24  1  0
 23 24  2  0
 23 22  1  0
 21 22  1  0
M  RAD  8   5   2   6   2   7   2   8   2  13   3  14   2  16   2  19   3
M  CHG  2   3   1  11  -1
M  RAD  4  21   2  24   2  25   2  28   2
M  END
>  <_TriposChargeType>  (1) 
GASTEIGER

>  <SuCOS_score>  (1) 
0.335521891819245

>  <Volume_score>  (1) 
0.5232570986631311

>  <Feature_score>  (1) 
0.147786684975359

$$$$
