DOCK.F36.P4k60/L1012_ligand.pdbt
     RDKit          3D

 30 32  0  0  0  0  0  0  0  0999 V2000
   -0.7040   36.6120   21.8740 N   0  0  0  0  0  0  0  0  0  0  0  0
    0.2560   36.5940   21.4490 H   0  0  0  0  0  0  0  0  0  0  0  0
   -2.8860   40.1930   21.7490 C   0  0  0  0  0  0  0  0  0  0  0  0
   -3.5270   39.0060   21.4670 C   0  0  0  0  0  3  0  0  0  0  0  0
   -2.7960   37.8240   21.5130 C   0  0  0  0  0  3  0  0  0  0  0  0
   -1.4610   37.7990   21.8290 C   0  0  0  0  0  0  0  0  0  0  0  0
   -0.8410   38.9960   22.1070 C   0  0  0  0  0  0  0  0  0  0  0  0
   -1.5280   40.1930   22.0730 C   0  0  0  0  0  3  0  0  0  0  0  0
    0.8590   39.0090   22.5130 S   0  0  2  0  0  6  0  0  0  0  0  0
    1.8040   39.7620   21.2010 C   0  0  0  0  0  1  0  0  0  0  0  0
    1.3970   37.5970   22.6580 O   0  0  0  0  0  0  0  0  0  0  0  0
    1.1200   39.8040   23.7540 O   0  0  0  0  0  0  0  0  0  0  0  0
   -3.6210   41.4530   21.7100 C   0  0  0  0  0  0  0  0  0  0  0  0
   -3.2380   42.4020   20.9850 O   0  0  0  0  0  0  0  0  0  0  0  0
   -5.0110   42.8360   23.1470 C   0  0  0  0  0  1  0  0  0  0  0  0
   -4.7520   41.6120   22.4770 O   0  0  0  0  0  0  0  0  0  0  0  0
   -1.3190   35.2080   22.6030 S   0  0  2  0  0  6  0  0  0  0  0  0
   -1.5080   35.4140   24.0810 O   0  0  0  0  0  0  0  0  0  0  0  0
   -0.3010   34.1000   22.4680 O   0  0  0  0  0  0  0  0  0  0  0  0
   -2.8730   34.6990   21.9740 C   0  0  0  0  0  0  0  0  0  0  0  0
   -4.2680   34.3180   22.8650 S   0  0  0  0  0  0  0  0  0  0  0  0
   -5.3240   33.9280   21.5850 C   0  0  0  0  0  0  0  0  0  0  0  0
   -6.6630   33.5150   21.5300 C   0  0  0  0  0  3  0  0  0  0  0  0
   -7.2710   33.2650   20.3080 C   0  0  0  0  0  3  0  0  0  0  0  0
   -6.4780   33.4510   19.2070 C   0  0  0  0  0  0  0  0  0  0  0  0
   -7.0690   33.2060   17.9930 F   0  0  0  0  0  0  0  0  0  0  0  0
   -5.1750   33.8510   19.2360 C   0  0  0  0  0  3  0  0  0  0  0  0
   -4.5470   34.1090   20.4770 C   0  0  0  0  0  0  0  0  0  0  0  0
   -3.2690   34.5090   20.6790 C   0  0  0  0  0  0  0  0  0  0  0  0
   -2.2450   34.7660   19.5750 C   0  0  0  0  0  1  0  0  0  0  0  0
 26 25  1  0
 25 27  2  0
 25 24  1  0
 27 28  1  0
 30 29  1  0
 24 23  2  0
 28 29  1  0
 28 22  2  0
 29 20  2  0
 14 13  2  0
  9 10  1  6
  2  1  1  0
  4  5  1  0
  4  3  2  0
  5  6  2  0
 23 22  1  0
 22 21  1  0
 13  3  1  0
 13 16  1  0
  3  8  1  0
  6  1  1  0
  6  7  1  0
 17  1  1  6
 20 17  1  0
 20 21  1  0
  8  7  2  0
  7  9  1  0
 19 17  2  0
 16 15  1  0
  9 11  2  0
  9 12  2  0
 17 18  2  0
M  RAD  8   4   2   5   2   8   2  10   2  15   2  23   2  24   2  27   2
M  RAD  1  30   2
M  END
>  <_TriposChargeType>  (1) 
GASTEIGER

>  <SuCOS_score>  (1) 
0.19849122611524064

>  <Volume_score>  (1) 
0.3382385483514052

>  <Feature_score>  (1) 
0.05874390387907609

$$$$
