DOCK.F10.P3n7o/L1005_ligand.pdbt
     RDKit          3D

 31 34  0  0  0  0  0  0  0  0999 V2000
   -4.0740   40.5420   23.8500 C   0  0  0  0  0  0  0  0  0  0  0  0
   -3.0810   40.1490   22.9260 C   0  0  0  0  0  0  0  0  0  0  0  0
   -2.4500   39.0710   23.3700 N   0  0  0  0  0  4  0  0  0  0  0  0
   -3.0060   38.7300   24.5980 C   0  0  0  0  0  0  0  0  0  0  0  0
   -2.6340   37.6950   25.4290 C   0  0  0  0  0  3  0  0  0  0  0  0
   -3.3200   37.5700   26.6460 C   0  0  0  0  0  3  0  0  0  0  0  0
   -4.3160   38.4620   26.9610 C   0  0  0  0  0  0  0  0  0  0  0  0
   -5.0020   38.3520   28.1500 F   0  0  0  0  0  0  0  0  0  0  0  0
   -4.6550   39.4860   26.0930 C   0  0  0  0  0  3  0  0  0  0  0  0
   -4.0020   39.6410   24.8820 C   0  0  0  0  0  0  0  0  0  0  0  0
   -2.8540   40.9220   21.7040 C   0  0  0  0  0  0  0  0  0  0  0  0
   -1.9140   41.7850   21.6130 O   0  0  0  0  0  1  0  0  0  0  0  0
   -3.6060   40.8010   20.5580 O   0  0  0  0  0  0  0  0  0  0  0  0
   -4.9450   41.7090   23.6800 C   0  0  0  0  0  2  0  0  0  0  0  0
   -4.5960   43.4820   25.4340 C   0  0  0  0  0  0  0  0  0  0  0  0
   -5.1490   42.7350   26.2990 O   0  0  0  0  0  0  0  0  0  0  0  0
   -4.4880   42.9790   24.1100 N   0  0  0  0  0  0  0  0  0  0  0  0
   -4.0100   43.6530   23.4240 H   0  0  0  0  0  0  0  0  0  0  0  0
   -3.9990   45.7960   24.8660 C   0  0  0  0  0  1  0  0  0  0  0  0
   -4.1220   44.7410   25.7920 O   0  0  0  0  0  0  0  0  0  0  0  0
   -1.3360   38.3480   22.7820 C   0  0  0  0  0  2  0  0  0  0  0  0
   -0.0770   38.7190   23.3970 C   0  0  0  0  0  0  0  0  0  0  0  0
    0.1970   38.3780   24.7140 C   0  0  0  0  0  3  0  0  0  0  0  0
    1.3990   38.5930   25.3470 C   0  0  0  0  0  3  0  0  0  0  0  0
    2.3890   39.1930   24.5980 C   0  0  0  0  0  3  0  0  0  0  0  0
    2.1780   39.5520   23.3050 C   0  0  0  0  0  0  0  0  0  0  0  0
    3.1870   40.1890   22.6360 C   0  0  0  0  0  3  0  0  0  0  0  0
    3.0120   40.6250   21.3280 C   0  0  0  0  0  3  0  0  0  0  0  0
    1.7820   40.3940   20.7220 C   0  0  0  0  0  3  0  0  0  0  0  0
    0.7610   39.7520   21.3900 C   0  0  0  0  0  3  0  0  0  0  0  0
    0.9370   39.3200   22.6800 C   0  0  0  0  0  0  0  0  0  0  0  0
 13 11  2  0
 29 28  2  0
 29 30  1  0
 28 27  1  0
 30 31  2  0
 12 11  1  0
 11  2  1  0
 27 26  2  0
 31 26  1  0
 31 22  1  0
 21  3  1  0
 21 22  1  0
  2  3  1  0
  2  1  2  0
 26 25  1  0
  3  4  1  0
 22 23  2  0
 18 17  1  0
 14  1  1  0
 14 17  1  0
  1 10  1  0
 17 15  1  0
 25 24  2  0
  4 10  2  0
  4  5  1  0
 23 24  1  0
 19 20  1  0
 10  9  1  0
  5  6  2  0
 15 20  1  0
 15 16  2  0
  9  7  2  0
  6  7  1  0
  7  8  1  0
M  RAD  8   5   2   6   2   9   2  14   3  19   2  21   3  23   2  24   2
M  CHG  2   3   1  12  -1
M  RAD  5  25   2  27   2  28   2  29   2  30   2
M  END
>  <_TriposChargeType>  (1) 
GASTEIGER

>  <SuCOS_score>  (1) 
0.22827876290211402

>  <Volume_score>  (1) 
0.3614404432132964

>  <Feature_score>  (1) 
0.09511708259093163

$$$$
