DOCK.F10.P3n7o/L1008_ligand.pdbt
     RDKit          3D

 32 36  0  0  0  0  0  0  0  0999 V2000
   -2.3520   37.8850   23.9470 C   0  0  0  0  0  3  0  0  0  0  0  0
    4.9200   39.8010   23.9970 C   0  0  0  0  0  1  0  0  0  0  0  0
    3.5290   39.7680   23.4470 C   0  0  0  0  0  0  0  0  0  0  0  0
    3.2730   40.4260   22.2660 C   0  0  0  0  0  3  0  0  0  0  0  0
    1.9770   40.3770   21.7830 C   0  0  0  0  0  3  0  0  0  0  0  0
    0.9870   39.6860   22.4760 C   0  0  0  0  0  0  0  0  0  0  0  0
   -0.6730   39.4120   22.2010 S   0  0  0  0  0  0  0  0  0  0  0  0
   -1.0380   38.4710   23.5710 C   0  0  0  0  0  0  0  0  0  0  0  0
    0.1700   38.3960   24.2170 C   0  0  0  0  0  0  0  0  0  0  0  0
    0.2450   37.6110   25.5260 C   0  0  0  0  0  1  0  0  0  0  0  0
    1.2160   39.0230   23.6520 C   0  0  0  0  0  0  0  0  0  0  0  0
    2.5430   39.0960   24.1090 C   0  0  0  0  0  3  0  0  0  0  0  0
   -3.4480   38.8900   23.9860 C   0  0  0  0  0  0  0  0  0  0  0  0
   -4.1190   39.6330   23.1660 C   0  0  0  0  0  0  0  0  0  0  0  0
   -4.0730   39.8060   21.7720 O   0  0  0  0  0  0  0  0  0  0  0  0
   -4.9400   40.2320   24.1930 C   0  0  1  0  0  0  0  0  0  0  0  0
   -6.4020   39.8290   24.2030 C   0  0  0  0  0  1  0  0  0  0  0  0
   -4.1870   39.4010   25.1090 C   0  0  0  0  0  0  0  0  0  0  0  0
   -4.2000   39.2210   26.3800 O   0  0  0  0  0  0  0  0  0  0  0  0
   -4.7520   39.2850   21.2330 H   0  0  0  0  0  0  0  0  0  0  0  0
   -4.7150   41.6730   24.4560 C   0  0  0  0  0  0  0  0  0  0  0  0
   -4.6100   42.1860   25.7260 C   0  0  0  0  0  3  0  0  0  0  0  0
   -4.4020   43.5350   25.9640 C   0  0  0  0  0  3  0  0  0  0  0  0
   -4.2950   44.3930   24.9060 C   0  0  0  0  0  3  0  0  0  0  0  0
   -4.3990   43.8920   23.6270 C   0  0  0  0  0  3  0  0  0  0  0  0
   -4.6080   42.5380   23.3930 C   0  0  0  0  0  3  0  0  0  0  0  0
   -2.7050   36.8850   22.9030 C   0  0  0  0  0  0  0  0  0  0  0  0
   -2.0360   36.8180   21.7000 C   0  0  0  0  0  3  0  0  0  0  0  0
   -2.4020   35.8860   20.7830 C   0  0  0  0  0  3  0  0  0  0  0  0
   -3.4150   35.0150   21.0220 C   0  0  0  0  0  3  0  0  0  0  0  0
   -4.0890   35.0880   22.2430 C   0  0  0  0  0  3  0  0  0  0  0  0
   -3.7450   36.0190   23.1940 C   0  0  0  0  0  3  0  0  0  0  0  0
 29 30  1  0
 29 28  2  0
 30 31  2  0
 20 15  1  0
 28 27  1  0
 15 14  1  0
  5  4  1  0
  5  6  2  0
  7  6  1  0
  7  8  1  0
 31 32  1  0
  4  3  2  0
  6 11  1  0
 27 32  2  0
 27  1  1  0
 14 13  2  0
 14 16  1  0
 26 25  2  0
 26 21  1  0
  3  2  1  0
  3 12  1  0
  8  1  1  0
  8  9  2  0
 25 24  1  0
 11 12  2  0
 11  9  1  0
  1 13  1  0
 13 18  1  0
 16 17  1  6
 16 21  1  0
 16 18  1  0
  9 10  1  0
 21 22  2  0
 24 23  2  0
 18 19  2  0
 22 23  1  0
M  RAD  8   1   2   2   2   4   2   5   2  10   2  12   2  17   2  22   2
M  RAD  8  23   2  24   2  25   2  26   2  28   2  29   2  30   2  31   2
M  RAD  1  32   2
M  END
>  <_TriposChargeType>  (1) 
GASTEIGER

>  <SuCOS_score>  (1) 
0.3192062450550286

>  <Volume_score>  (1) 
0.431951354339414

>  <Feature_score>  (1) 
0.20646113577064323

$$$$
