DOCK.F10.P3n7o/L1009_ligand.pdbt
     RDKit          3D

 34 38  0  0  0  0  0  0  0  0999 V2000
   -1.5300   38.3090   23.2550 C   0  0  0  0  0  3  0  0  0  0  0  0
    0.8100   38.1910   25.4380 C   0  0  0  0  0  1  0  0  0  0  0  0
    0.8860   38.7130   24.0400 C   0  0  0  0  0  0  0  0  0  0  0  0
   -0.1180   38.7700   23.0990 C   0  0  0  0  0  0  0  0  0  0  0  0
    0.4520   39.3250   22.0160 N   0  0  0  0  0  0  0  0  0  0  0  0
    1.7360   39.6140   22.2230 C   0  0  0  0  0  0  0  0  0  0  0  0
    2.7450   40.1840   21.4400 C   0  0  0  0  0  3  0  0  0  0  0  0
    4.0000   40.3410   21.9900 C   0  0  0  0  0  3  0  0  0  0  0  0
    4.3100   39.9610   23.2750 C   0  0  0  0  0  0  0  0  0  0  0  0
    5.5740   40.1430   23.7630 F   0  0  0  0  0  0  0  0  0  0  0  0
    3.3160   39.4000   24.0420 C   0  0  0  0  0  3  0  0  0  0  0  0
    2.0450   39.2340   23.5100 C   0  0  0  0  0  0  0  0  0  0  0  0
   -0.0190   39.5280   21.0900 H   0  0  0  0  0  0  0  0  0  0  0  0
   -2.5080   39.4160   23.2160 C   0  0  0  0  0  0  0  0  0  0  0  0
   -3.6400   39.5810   23.8600 C   0  0  0  0  0  0  0  0  0  0  0  0
   -4.2260   38.6940   24.7960 O   0  0  0  0  0  0  0  0  0  0  0  0
   -4.2710   40.8630   23.4840 C   0  0  0  0  0  3  0  0  0  0  0  0
   -3.4010   41.4670   22.5770 O   0  0  0  0  0  0  0  0  0  0  0  0
   -2.3300   40.6230   22.3790 C   0  0  0  0  0  0  0  0  0  0  0  0
   -1.3770   40.8780   21.6000 O   0  0  0  0  0  0  0  0  0  0  0  0
   -5.1740   38.3970   24.5550 H   0  0  0  0  0  0  0  0  0  0  0  0
   -4.4010   41.8010   24.6700 C   0  0  0  0  0  2  0  0  0  0  0  0
   -5.0690   43.0540   24.2340 C   0  0  0  0  0  0  0  0  0  0  0  0
   -6.3800   43.0390   23.8160 C   0  0  0  0  0  3  0  0  0  0  0  0
   -7.0340   44.1900   23.4010 C   0  0  0  0  0  3  0  0  0  0  0  0
   -6.3520   45.4050   23.4000 C   0  0  0  0  0  3  0  0  0  0  0  0
   -5.0460   45.4050   23.8180 C   0  0  0  0  0  3  0  0  0  0  0  0
   -4.3990   44.2610   24.2320 C   0  0  0  0  0  3  0  0  0  0  0  0
   -1.8530   37.2180   22.3190 C   0  0  0  0  0  0  0  0  0  0  0  0
   -2.3000   37.4640   21.0200 C   0  0  0  0  0  3  0  0  0  0  0  0
   -2.5890   36.3990   20.1960 C   0  0  0  0  0  3  0  0  0  0  0  0
   -2.4500   35.0940   20.6160 C   0  0  0  0  0  3  0  0  0  0  0  0
   -2.0040   34.8400   21.9110 C   0  0  0  0  0  3  0  0  0  0  0  0
   -1.7230   35.9030   22.7110 C   0  0  0  0  0  3  0  0  0  0  0  0
 31 32  1  0
 31 30  2  0
 32 33  2  0
 30 29  1  0
 13  5  1  0
  7  8  2  0
  7  6  1  0
 20 19  2  0
 33 34  1  0
  8  9  1  0
  5  6  1  0
  5  4  1  0
  6 12  2  0
 29 34  2  0
 29  1  1  0
 19 18  1  0
 19 14  1  0
 18 17  1  0
  4  1  1  0
  4  3  2  0
 14  1  1  0
 14 15  2  0
  9 10  1  0
  9 11  2  0
 26 25  1  0
 26 27  2  0
 25 24  2  0
 17 15  1  0
 17 22  1  0
 12  3  1  0
 12 11  1  0
 24 23  1  0
 27 28  1  0
 15 16  1  0
  3  2  1  0
 28 23  2  0
 23 22  1  0
 21 16  1  0
M  RAD  8   1   2   2   2   7   2   8   2  11   2  17   2  22   3  24   2
M  RAD  8  25   2  26   2  27   2  28   2  30   2  31   2  32   2  33   2
M  RAD  1  34   2
M  END
>  <_TriposChargeType>  (1) 
GASTEIGER

>  <SuCOS_score>  (1) 
0.33495106262619134

>  <Volume_score>  (1) 
0.4829300629764667

>  <Feature_score>  (1) 
0.18697206227591606

$$$$
