DOCK.F10.P3n7o/L1015_ligand.pdbt
     RDKit          3D

 32 35  0  0  0  0  0  0  0  0999 V2000
   -2.1780   36.4640   23.6710 N   0  0  0  0  0  0  0  0  0  0  0  0
   -2.1580   35.8060   24.4800 H   0  0  0  0  0  0  0  0  0  0  0  0
   -2.3630   35.9430   22.3790 C   0  0  0  0  0  0  0  0  0  0  0  0
   -2.7260   36.6690   21.2610 C   0  0  0  0  0  3  0  0  0  0  0  0
   -2.8830   36.1250   20.0010 C   0  0  0  0  0  3  0  0  0  0  0  0
   -2.6720   34.7850   19.8190 C   0  0  0  0  0  0  0  0  0  0  0  0
   -2.3080   34.0320   20.9150 C   0  0  0  0  0  3  0  0  0  0  0  0
   -2.1570   34.5730   22.1450 C   0  0  0  0  0  0  0  0  0  0  0  0
   -2.8180   34.1330   18.5150 C   0  0  0  0  0  0  0  0  0  0  0  0
   -1.7650   34.0260   17.6260 C   0  0  0  0  0  3  0  0  0  0  0  0
   -1.9440   33.4000   16.4000 C   0  0  0  0  0  3  0  0  0  0  0  0
   -3.1390   32.9030   16.0840 N   0  0  0  0  0  0  0  0  0  0  0  0
   -4.1930   32.9830   16.9170 C   0  0  0  0  0  3  0  0  0  0  0  0
   -4.0250   33.5990   18.1290 C   0  0  0  0  0  3  0  0  0  0  0  0
   -1.6950   33.5760   23.5000 S   0  0  1  0  0  6  0  0  0  0  0  0
    0.0700   33.3920   23.4810 C   0  0  0  0  0  1  0  0  0  0  0  0
   -2.1090   34.2420   24.7800 O   0  0  0  0  0  0  0  0  0  0  0  0
   -2.3870   32.2420   23.4640 O   0  0  0  0  0  0  0  0  0  0  0  0
   -1.9840   38.1290   23.9450 S   0  0  2  0  0  6  0  0  0  0  0  0
   -2.2080   38.3990   25.4260 O   0  0  0  0  0  0  0  0  0  0  0  0
   -3.0550   38.9090   23.2280 O   0  0  0  0  0  0  0  0  0  0  0  0
    0.7990   38.1130   25.5620 C   0  0  0  0  0  1  0  0  0  0  0  0
    0.7820   38.7050   24.1590 C   0  0  0  0  0  0  0  0  0  0  0  0
   -0.4020   38.7080   23.4800 C   0  0  0  0  0  0  0  0  0  0  0  0
   -0.0120   39.4310   22.0000 S   0  0  0  0  0  0  0  0  0  0  0  0
    1.6600   39.7210   22.2670 C   0  0  0  0  0  0  0  0  0  0  0  0
    2.6690   40.2960   21.4880 C   0  0  0  0  0  3  0  0  0  0  0  0
    3.9560   40.4000   21.9710 C   0  0  0  0  0  3  0  0  0  0  0  0
    4.1480   39.9070   23.2430 C   0  0  0  0  0  0  0  0  0  0  0  0
    5.4150   40.0000   23.7400 F   0  0  0  0  0  0  0  0  0  0  0  0
    3.1760   39.3430   24.0180 C   0  0  0  0  0  3  0  0  0  0  0  0
    1.8530   39.2310   23.5290 C   0  0  0  0  0  0  0  0  0  0  0  0
 12 11  1  0
 12 13  2  0
 11 10  2  0
 13 14  1  0
 10  9  1  0
 14  9  2  0
  9  6  1  0
  6  5  1  0
  6  7  2  0
  5  4  2  0
  7  8  1  0
  4  3  1  0
 27 28  2  0
 27 26  1  0
 28 29  1  0
 25 26  1  0
 25 24  1  0
  8  3  2  0
  8 15  1  0
 26 32  2  0
  3  1  1  0
 21 19  2  0
 29 30  1  0
 29 31  2  0
 18 15  2  0
 24 19  1  0
 24 23  2  0
 15 16  1  1
 15 17  2  0
 32 31  1  0
 32 23  1  0
 19  1  1  1
  1  2  1  0
 19 20  2  0
 23 22  1  0
M  RAD  8   4   2   5   2   7   2  10   2  11   2  13   2  14   2  16   2
M  RAD  4  22   2  27   2  28   2  31   2
M  END
>  <_TriposChargeType>  (1) 
GASTEIGER

>  <SuCOS_score>  (1) 
0.284891655425526

>  <Volume_score>  (1) 
0.3989848835926294

>  <Feature_score>  (1) 
0.17079842725842265

$$$$
