DOCK.F10.P3n7o/L1010_ligand.pdbt
     RDKit          3D

 24 27  0  0  0  0  0  0  0  0999 V2000
   -3.1570   39.5020   21.6860 C   0  0  0  0  0  0  0  0  0  0  0  0
   -4.2820   38.7090   21.6020 C   0  0  0  0  0  3  0  0  0  0  0  0
   -3.8420   37.4160   21.4510 C   0  0  0  0  0  0  0  0  0  0  0  0
   -4.5280   36.2010   21.3160 C   0  0  0  0  0  3  0  0  0  0  0  0
   -3.8610   35.0090   21.1750 C   0  0  0  0  0  3  0  0  0  0  0  0
   -2.4970   35.0320   21.1670 C   0  0  0  0  0  3  0  0  0  0  0  0
   -1.8190   36.2240   21.2990 C   0  0  0  0  0  3  0  0  0  0  0  0
   -2.4820   37.4420   21.4430 C   0  0  0  0  0  0  0  0  0  0  0  0
   -2.0770   38.7110   21.5860 N   0  0  0  0  0  0  0  0  0  0  0  0
   -4.2000   41.4560   22.4080 O   0  0  0  0  0  1  0  0  0  0  0  0
   -3.2010   40.9540   21.8530 C   0  0  0  0  0  0  0  0  0  0  0  0
   -2.1920   41.7990   21.4290 O   0  0  0  0  0  0  0  0  0  0  0  0
   -0.7170   39.1320   21.6250 C   0  0  0  0  0  2  0  0  0  0  0  0
   -0.0410   38.9040   22.9030 C   0  0  0  0  0  0  0  0  0  0  0  0
   -0.6630   38.3620   24.0020 C   0  0  0  0  0  3  0  0  0  0  0  0
    0.0770   38.1960   25.1500 C   0  0  0  0  0  3  0  0  0  0  0  0
    1.4060   38.5490   25.2410 C   0  0  0  0  0  3  0  0  0  0  0  0
    2.0440   39.0990   24.1300 C   0  0  0  0  0  0  0  0  0  0  0  0
    3.3730   39.4590   24.2000 C   0  0  0  0  0  3  0  0  0  0  0  0
    3.9730   39.9990   23.0840 C   0  0  0  0  0  3  0  0  0  0  0  0
    3.2760   40.1800   21.9260 C   0  0  0  0  0  0  0  0  0  0  0  0
    3.8330   40.7110   20.8010 F   0  0  0  0  0  0  0  0  0  0  0  0
    1.9570   39.8100   21.8950 C   0  0  0  0  0  3  0  0  0  0  0  0
    1.2900   39.2560   22.9950 C   0  0  0  0  0  0  0  0  0  0  0  0
 22 21  1  0
  6  5  2  0
  6  7  1  0
  5  4  1  0
  7  8  2  0
  4  3  2  0
 12 11  2  0
  8  3  1  0
  8  9  1  0
  3  2  1  0
  9 13  1  0
  9  1  1  0
  2  1  2  0
 13 14  1  0
  1 11  1  0
 11 10  1  0
 23 21  1  0
 23 24  2  0
 21 20  2  0
 14 24  1  0
 14 15  2  0
 24 18  1  0
 20 19  1  0
 15 16  1  0
 18 19  2  0
 18 17  1  0
 16 17  2  0
M  RAD  8   2   2   4   2   5   2   6   2   7   2  13   3  15   2  16   2
M  CHG  1  10  -1
M  RAD  4  17   2  19   2  20   2  23   2
M  END
>  <_TriposChargeType>  (1) 
GASTEIGER

>  <SuCOS_score>  (1) 
0.32741540622111254

>  <Volume_score>  (1) 
0.41641807535079

>  <Feature_score>  (1) 
0.23841273709143504

$$$$
