DOCK.F10.P3n7o/L1013_ligand.pdbt
     RDKit          3D

 27 30  0  0  0  0  0  0  0  0999 V2000
   -4.3780   41.1340   23.5600 N   0  0  0  0  0  4  0  0  0  0  0  0
   -3.3570   40.6240   22.8130 C   0  0  0  0  0  0  0  0  0  0  0  0
   -2.7610   39.5620   23.4550 C   0  0  0  0  0  0  0  0  0  0  0  0
   -3.4930   39.4500   24.6600 C   0  0  0  0  0  0  0  0  0  0  0  0
   -3.4020   38.5680   25.7150 C   0  0  0  0  0  3  0  0  0  0  0  0
   -4.2670   38.6510   26.7880 C   0  0  0  0  0  3  0  0  0  0  0  0
   -5.2330   39.6250   26.8090 C   0  0  0  0  0  3  0  0  0  0  0  0
   -5.3400   40.5120   25.7670 C   0  0  0  0  0  3  0  0  0  0  0  0
   -4.4500   40.4080   24.6810 C   0  0  0  0  0  0  0  0  0  0  0  0
   -3.0340   41.1800   21.4980 C   0  0  0  0  0  0  0  0  0  0  0  0
   -1.9460   41.8540   21.4000 O   0  0  0  0  0  1  0  0  0  0  0  0
   -3.8000   41.0400   20.3620 O   0  0  0  0  0  0  0  0  0  0  0  0
   -5.2640   42.2560   23.2710 C   0  0  0  0  0  2  0  0  0  0  0  0
   -4.5650   43.5730   23.4930 C   0  0  0  0  0  2  0  0  0  0  0  0
   -4.0000   45.2450   24.9990 C   0  0  0  0  0  1  0  0  0  0  0  0
   -4.4010   43.9290   24.8040 O   0  0  0  0  0  0  0  0  0  0  0  0
   -1.6870   38.6530   23.0370 C   0  0  0  0  0  2  0  0  0  0  0  0
   -0.3520   38.7390   23.5280 C   0  0  0  0  0  0  0  0  0  0  0  0
   -0.0300   38.2970   24.8290 C   0  0  0  0  0  3  0  0  0  0  0  0
    1.2000   38.4000   25.3930 C   0  0  0  0  0  3  0  0  0  0  0  0
    2.2290   38.9630   24.6980 C   0  0  0  0  0  3  0  0  0  0  0  0
    1.9890   39.4170   23.4280 C   0  0  0  0  0  0  0  0  0  0  0  0
    3.0250   40.0010   22.7100 C   0  0  0  0  0  3  0  0  0  0  0  0
    2.8410   40.4850   21.4260 C   0  0  0  0  0  3  0  0  0  0  0  0
    1.6030   40.3730   20.8820 C   0  0  0  0  0  3  0  0  0  0  0  0
    0.5900   39.7950   21.6010 C   0  0  0  0  0  3  0  0  0  0  0  0
    0.7130   39.2980   22.8720 C   0  0  0  0  0  0  0  0  0  0  0  0
 12 10  2  0
 25 24  2  0
 25 26  1  0
 11 10  1  0
 24 23  1  0
 10  2  1  0
 26 27  2  0
 23 22  2  0
  2  3  2  0
  2  1  1  0
 27 22  1  0
 27 18  1  0
 17  3  1  0
 17 18  1  0
 13 14  1  0
 13  1  1  0
 22 21  1  0
  3  4  1  0
 14 16  1  0
 18 19  2  0
  1  9  1  0
  4  9  2  0
  4  5  1  0
  9  8  1  0
 21 20  2  0
 16 15  1  0
 19 20  1  0
  5  6  2  0
  8  7  2  0
  6  7  1  0
M  RAD  8   5   2   6   2   7   2   8   2  13   3  14   3  15   2  17   3
M  CHG  2   1   1  11  -1
M  RAD  7  19   2  20   2  21   2  23   2  24   2  25   2  26   2
M  END
>  <_TriposChargeType>  (1) 
GASTEIGER

>  <SuCOS_score>  (1) 
0.22705921249920225

>  <Volume_score>  (1) 
0.3562416998671979

>  <Feature_score>  (1) 
0.09787672513120659

$$$$
