DOCK.F10.P3n7o/L1016_ligand.pdbt
     RDKit          3D

 29 32  0  0  0  0  0  0  0  0999 V2000
   -4.2530   41.6750   23.6590 C   0  0  0  0  0  0  0  0  0  0  0  0
   -3.4100   40.8260   22.9230 C   0  0  0  0  0  0  0  0  0  0  0  0
   -3.1790   39.7260   23.6080 N   0  0  0  0  0  4  0  0  0  0  0  0
   -3.8870   39.8630   24.8270 C   0  0  0  0  0  0  0  0  0  0  0  0
   -4.0200   39.0490   25.9140 C   0  0  0  0  0  3  0  0  0  0  0  0
   -4.7750   39.3910   26.9990 C   0  0  0  0  0  3  0  0  0  0  0  0
   -5.4300   40.6060   27.0020 C   0  0  0  0  0  3  0  0  0  0  0  0
   -5.3270   41.4580   25.9350 C   0  0  0  0  0  3  0  0  0  0  0  0
   -4.5400   41.0610   24.8440 C   0  0  0  0  0  0  0  0  0  0  0  0
   -2.9100   41.1730   21.5980 C   0  0  0  0  0  0  0  0  0  0  0  0
   -1.8510   41.8010   21.4000 O   0  0  0  0  0  1  0  0  0  0  0  0
   -3.6190   40.7990   20.4690 O   0  0  0  0  0  0  0  0  0  0  0  0
   -4.7530   43.0090   23.2620 C   0  0  0  0  0  2  0  0  0  0  0  0
   -8.2400   44.3870   24.2010 C   0  0  0  0  0  1  0  0  0  0  0  0
   -6.8140   44.2980   23.9930 N   0  0  0  0  0  0  0  0  0  0  0  0
   -5.9720   45.4190   24.2920 C   0  0  0  0  0  1  0  0  0  0  0  0
   -6.2240   43.1160   23.4850 C   0  0  0  0  0  0  0  0  0  0  0  0
   -6.9350   42.1150   23.2000 O   0  0  0  0  0  0  0  0  0  0  0  0
   -2.5060   38.5050   23.3860 C   0  0  0  0  0  2  0  0  0  0  0  0
   -1.1380   38.3360   24.0080 C   0  0  0  0  0  0  0  0  0  0  0  0
   -1.0370   37.6140   25.1690 C   0  0  0  0  0  3  0  0  0  0  0  0
    0.5990   37.7870   25.6000 S   0  0  0  0  0  0  0  0  0  0  0  0
    1.1320   38.7600   24.3110 C   0  0  0  0  0  0  0  0  0  0  0  0
    2.3860   39.2770   23.9540 C   0  0  0  0  0  3  0  0  0  0  0  0
    2.5460   40.0000   22.7970 C   0  0  0  0  0  3  0  0  0  0  0  0
    1.4210   40.1760   22.0390 C   0  0  0  0  0  0  0  0  0  0  0  0
    1.5550   40.8900   20.8890 F   0  0  0  0  0  0  0  0  0  0  0  0
    0.1950   39.6800   22.3730 C   0  0  0  0  0  3  0  0  0  0  0  0
   -0.0010   38.9340   23.5600 C   0  0  0  0  0  0  0  0  0  0  0  0
 12 10  2  0
 27 26  1  0
 11 10  1  0
 10  2  1  0
 26 28  1  0
 26 25  2  0
 28 29  2  0
 25 24  1  0
  2  3  1  0
  2  1  2  0
 18 17  2  0
 13 17  1  0
 13  1  1  0
 19  3  1  0
 19 20  1  0
 17 15  1  0
 29 20  1  0
 29 23  1  0
  3  4  1  0
  1  9  1  0
 24 23  2  0
 15 14  1  0
 15 16  1  0
 20 21  2  0
 23 22  1  0
  4  9  2  0
  4  5  1  0
  9  8  1  0
 21 22  1  0
  5  6  2  0
  8  7  2  0
  6  7  1  0
M  RAD  8   5   2   6   2   7   2   8   2  13   3  14   2  16   2  19   3
M  CHG  2   3   1  11  -1
M  RAD  4  21   2  24   2  25   2  28   2
M  END
>  <_TriposChargeType>  (1) 
GASTEIGER

>  <SuCOS_score>  (1) 
0.2086802209645658

>  <Volume_score>  (1) 
0.377475384445182

>  <Feature_score>  (1) 
0.03988505748394955

$$$$
