DOCK.F40.P4k69/L1008_ligand.pdbt
     RDKit          3D

 32 36  0  0  0  0  0  0  0  0999 V2000
   -2.4180   38.3210   22.8940 C   0  0  0  0  0  3  0  0  0  0  0  0
    4.9540   39.5380   23.7470 C   0  0  0  0  0  1  0  0  0  0  0  0
    3.6420   39.6000   23.0310 C   0  0  0  0  0  0  0  0  0  0  0  0
    3.5960   40.2000   21.7930 C   0  0  0  0  0  3  0  0  0  0  0  0
    2.3690   40.2420   21.1560 C   0  0  0  0  0  3  0  0  0  0  0  0
    1.2380   39.6950   21.7560 C   0  0  0  0  0  0  0  0  0  0  0  0
   -0.3970   39.5630   21.2910 S   0  0  0  0  0  0  0  0  0  0  0  0
   -1.0160   38.7530   22.6540 C   0  0  0  0  0  0  0  0  0  0  0  0
    0.0930   38.6070   23.4490 C   0  0  0  0  0  0  0  0  0  0  0  0
   -0.0690   37.9070   24.7980 C   0  0  0  0  0  1  0  0  0  0  0  0
    1.2570   39.0930   22.9860 C   0  0  0  0  0  0  0  0  0  0  0  0
    2.5210   39.0700   23.6000 C   0  0  0  0  0  3  0  0  0  0  0  0
   -3.3900   39.4470   22.8560 C   0  0  0  0  0  0  0  0  0  0  0  0
   -4.5510   39.7490   23.3420 C   0  0  0  0  0  0  0  0  0  0  0  0
   -5.4460   39.0650   24.1830 O   0  0  0  0  0  0  0  0  0  0  0  0
   -4.6080   41.0480   22.7120 C   0  0  1  0  0  0  0  0  0  0  0  0
   -4.4890   42.2470   23.6340 C   0  0  0  0  0  1  0  0  0  0  0  0
   -3.3110   40.7070   22.1680 C   0  0  0  0  0  0  0  0  0  0  0  0
   -2.4720   41.3010   21.3990 O   0  0  0  0  0  0  0  0  0  0  0  0
   -5.4120   39.3060   25.1650 H   0  0  0  0  0  0  0  0  0  0  0  0
   -5.6200   41.2140   21.6430 C   0  0  0  0  0  0  0  0  0  0  0  0
   -6.2530   42.4100   21.4020 C   0  0  0  0  0  3  0  0  0  0  0  0
   -7.2000   42.5570   20.4010 C   0  0  0  0  0  3  0  0  0  0  0  0
   -7.5230   41.4840   19.6210 C   0  0  0  0  0  3  0  0  0  0  0  0
   -6.8960   40.2780   19.8520 C   0  0  0  0  0  3  0  0  0  0  0  0
   -5.9470   40.1350   20.8570 C   0  0  0  0  0  3  0  0  0  0  0  0
   -2.7850   37.3810   21.8000 C   0  0  0  0  0  0  0  0  0  0  0  0
   -1.8420   36.8510   20.9460 C   0  0  0  0  0  3  0  0  0  0  0  0
   -2.2340   36.0000   19.9640 C   0  0  0  0  0  3  0  0  0  0  0  0
   -3.5370   35.6570   19.8010 C   0  0  0  0  0  3  0  0  0  0  0  0
   -4.4880   36.1980   20.6690 C   0  0  0  0  0  3  0  0  0  0  0  0
   -4.1260   37.0630   21.6740 C   0  0  0  0  0  3  0  0  0  0  0  0
 24 25  2  0
 24 23  1  0
 30 29  1  0
 30 31  2  0
 25 26  1  0
 29 28  2  0
 23 22  2  0
 31 32  1  0
 26 21  2  0
 28 27  1  0
  5  6  2  0
  5  4  1  0
  7  6  1  0
  7  8  1  0
 19 18  2  0
 22 21  1  0
 21 16  1  0
 32 27  2  0
  6 11  1  0
  4  3  2  0
 27  1  1  0
 18 16  1  0
 18 13  1  0
  8  1  1  0
  8  9  2  0
 16 14  1  0
 16 17  1  1
 13  1  1  0
 13 14  2  0
 11  9  1  0
 11 12  2  0
  3 12  1  0
  3  2  1  0
 14 15  1  0
  9 10  1  0
 15 20  1  0
M  RAD  8   1   2   2   2   4   2   5   2  10   2  12   2  17   2  22   2
M  RAD  8  23   2  24   2  25   2  26   2  28   2  29   2  30   2  31   2
M  RAD  1  32   2
M  END
>  <_TriposChargeType>  (1) 
GASTEIGER

>  <SuCOS_score>  (1) 
0.38900382827609553

>  <Volume_score>  (1) 
0.5483372003093581

>  <Feature_score>  (1) 
0.229670456242833

$$$$
