DOCK.F40.P4k69/L1005_ligand.pdbt
     RDKit          3D

 31 34  0  0  0  0  0  0  0  0999 V2000
   -4.4700   38.7990   21.6490 C   0  0  0  0  0  0  0  0  0  0  0  0
   -3.3560   39.6650   21.7050 C   0  0  0  0  0  0  0  0  0  0  0  0
   -2.2930   39.0700   21.1820 N   0  0  0  0  0  4  0  0  0  0  0  0
   -2.6760   37.7980   20.7740 C   0  0  0  0  0  0  0  0  0  0  0  0
   -1.8840   36.8230   20.2060 C   0  0  0  0  0  3  0  0  0  0  0  0
   -2.4890   35.5930   19.9120 C   0  0  0  0  0  3  0  0  0  0  0  0
   -3.8200   35.4050   20.1920 C   0  0  0  0  0  0  0  0  0  0  0  0
   -4.4310   34.2040   19.9070 F   0  0  0  0  0  0  0  0  0  0  0  0
   -4.5760   36.4140   20.7630 C   0  0  0  0  0  3  0  0  0  0  0  0
   -4.0150   37.6430   21.0670 C   0  0  0  0  0  0  0  0  0  0  0  0
   -3.4760   40.9930   22.3080 C   0  0  0  0  0  0  0  0  0  0  0  0
   -3.2000   42.0590   21.6570 O   0  0  0  0  0  1  0  0  0  0  0  0
   -3.8880   41.2250   23.6000 O   0  0  0  0  0  0  0  0  0  0  0  0
   -5.8020   39.1340   22.1600 C   0  0  0  0  0  2  0  0  0  0  0  0
   -7.5550   39.3480   20.3640 C   0  0  0  0  0  0  0  0  0  0  0  0
   -7.5400   38.0890   20.2000 O   0  0  0  0  0  0  0  0  0  0  0  0
   -6.6830   39.8880   21.3470 N   0  0  0  0  0  0  0  0  0  0  0  0
   -6.7410   40.9570   21.4430 H   0  0  0  0  0  0  0  0  0  0  0  0
   -8.0010   41.4000   19.0880 C   0  0  0  0  0  1  0  0  0  0  0  0
   -8.4000   40.1480   19.5990 O   0  0  0  0  0  0  0  0  0  0  0  0
   -0.9280   39.5560   21.0680 C   0  0  0  0  0  2  0  0  0  0  0  0
   -0.1680   39.2940   22.2740 C   0  0  0  0  0  0  0  0  0  0  0  0
   -0.7850   38.7760   23.4030 C   0  0  0  0  0  3  0  0  0  0  0  0
   -0.1300   38.3980   24.5540 C   0  0  0  0  0  3  0  0  0  0  0  0
    1.2390   38.5570   24.5590 C   0  0  0  0  0  3  0  0  0  0  0  0
    1.8990   39.0630   23.4850 C   0  0  0  0  0  0  0  0  0  0  0  0
    3.2510   39.2400   23.5790 C   0  0  0  0  0  3  0  0  0  0  0  0
    3.9720   39.8010   22.5310 C   0  0  0  0  0  3  0  0  0  0  0  0
    3.2750   40.1750   21.3860 C   0  0  0  0  0  3  0  0  0  0  0  0
    1.9120   39.9980   21.2840 C   0  0  0  0  0  3  0  0  0  0  0  0
    1.2030   39.4420   22.3200 C   0  0  0  0  0  0  0  0  0  0  0  0
 19 20  1  0
 20 15  1  0
  8  7  1  0
  6  7  2  0
  6  5  1  0
  7  9  1  0
 16 15  2  0
  5  4  2  0
 15 17  1  0
  9 10  2  0
  4 10  1  0
  4  3  1  0
 10  1  1  0
 21  3  1  0
 21 22  1  0
  3  2  1  0
 30 29  1  0
 30 31  2  0
 17 18  1  0
 17 14  1  0
 29 28  2  0
  1  2  2  0
  1 14  1  0
 12 11  1  0
  2 11  1  0
 22 31  1  0
 22 23  2  0
 11 13  2  0
 31 26  1  0
 28 27  1  0
 23 24  1  0
 26 27  2  0
 26 25  1  0
 24 25  2  0
M  RAD  8   5   2   6   2   9   2  14   3  19   2  21   3  23   2  24   2
M  CHG  2   3   1  12  -1
M  RAD  5  25   2  27   2  28   2  29   2  30   2
M  END
>  <_TriposChargeType>  (1) 
GASTEIGER

>  <SuCOS_score>  (1) 
0.3355632745669613

>  <Volume_score>  (1) 
0.4909954701137996

>  <Feature_score>  (1) 
0.1801310790201229

$$$$
