DOCK.F40.P4k69/L1001_ligand.pdbt
     RDKit          3D

 32 35  0  0  0  0  0  0  0  0999 V2000
   -4.5520   38.9280   21.5530 C   0  0  0  0  0  0  0  0  0  0  0  0
   -3.3900   39.7070   21.6650 C   0  0  0  0  0  0  0  0  0  0  0  0
   -2.3490   39.0180   21.1890 N   0  0  0  0  0  4  0  0  0  0  0  0
   -2.8130   37.8260   20.7790 C   0  0  0  0  0  0  0  0  0  0  0  0
   -2.1380   36.7340   20.2020 C   0  0  0  0  0  3  0  0  0  0  0  0
   -2.7990   35.5980   19.8490 C   0  0  0  0  0  3  0  0  0  0  0  0
   -4.1560   35.4920   20.0510 C   0  0  0  0  0  0  0  0  0  0  0  0
   -4.8540   34.3830   19.7160 F   0  0  0  0  0  0  0  0  0  0  0  0
   -4.8080   36.5760   20.6210 C   0  0  0  0  0  3  0  0  0  0  0  0
   -4.1600   37.7490   20.9920 C   0  0  0  0  0  0  0  0  0  0  0  0
   -3.3820   41.0490   22.2240 C   0  0  0  0  0  0  0  0  0  0  0  0
   -3.6000   41.2300   23.4280 O   0  0  0  0  0  1  0  0  0  0  0  0
   -3.1320   42.1200   21.4000 O   0  0  0  0  0  0  0  0  0  0  0  0
   -5.8700   39.3640   21.9720 C   0  0  0  0  0  2  0  0  0  0  0  0
   -6.7690   41.5550   22.5680 C   0  0  0  0  0  0  0  0  0  0  0  0
   -6.7620   41.2600   23.7950 O   0  0  0  0  0  0  0  0  0  0  0  0
   -6.3450   40.6400   21.5660 N   0  0  0  0  0  0  0  0  0  0  0  0
   -6.3930   41.0830   20.1770 C   0  0  0  0  0  1  0  0  0  0  0  0
   -7.2030   42.8090   22.2030 O   0  0  0  0  0  0  0  0  0  0  0  0
   -5.7830   44.4420   23.1780 C   0  0  0  0  0  1  0  0  0  0  0  0
   -7.2000   43.9390   23.0470 C   0  0  0  0  0  2  0  0  0  0  0  0
   -0.9760   39.4170   21.1050 C   0  0  0  0  0  2  0  0  0  0  0  0
   -0.2140   39.1360   22.3430 C   0  0  0  0  0  0  0  0  0  0  0  0
   -0.7790   38.6480   23.5030 C   0  0  0  0  0  3  0  0  0  0  0  0
   -0.0200   38.3980   24.6450 C   0  0  0  0  0  3  0  0  0  0  0  0
    1.3420   38.6590   24.5810 C   0  0  0  0  0  3  0  0  0  0  0  0
    1.9490   39.1480   23.4420 C   0  0  0  0  0  0  0  0  0  0  0  0
    3.2990   39.4000   23.3970 C   0  0  0  0  0  3  0  0  0  0  0  0
    3.8670   39.8860   22.2460 C   0  0  0  0  0  3  0  0  0  0  0  0
    3.1300   40.1360   21.1130 C   0  0  0  0  0  3  0  0  0  0  0  0
    1.7680   39.8720   21.1870 C   0  0  0  0  0  3  0  0  0  0  0  0
    1.1430   39.3840   22.3160 C   0  0  0  0  0  0  0  0  0  0  0  0
  8  7  1  0
  6  7  2  0
  6  5  1  0
  7  9  1  0
 18 17  1  0
  5  4  2  0
  9 10  2  0
  4 10  1  0
  4  3  1  0
 10  1  1  0
 22  3  1  0
 22 23  1  0
 30 31  1  0
 30 29  2  0
 31 32  2  0
  3  2  1  0
 13 11  2  0
  1  2  2  0
  1 14  1  0
 17 14  1  0
 17 15  1  0
  2 11  1  0
 19 15  1  0
 19 21  1  0
 11 12  1  0
 29 28  1  0
 32 23  1  0
 32 27  1  0
 23 24  2  0
 15 16  2  0
 21 20  1  0
 28 27  2  0
 27 26  1  0
 24 25  1  0
 26 25  2  0
M  RAD  8   5   2   6   2   9   2  14   3  18   2  20   2  21   3  22   3
M  CHG  2   3   1  12  -1
M  RAD  7  24   2  25   2  26   2  28   2  29   2  30   2  31   2
M  END
>  <_TriposChargeType>  (1) 
GASTEIGER

>  <SuCOS_score>  (1) 
0.3739310917405716

>  <Volume_score>  (1) 
0.5696608109601149

>  <Feature_score>  (1) 
0.17820137252102833

$$$$
