DOCK.F40.P4k69/L1012_ligand.pdbt
     RDKit          3D

 30 32  0  0  0  0  0  0  0  0999 V2000
   -3.3070   37.7100   22.1100 N   0  0  0  0  0  0  0  0  0  0  0  0
   -3.2540   36.7370   21.7170 H   0  0  0  0  0  0  0  0  0  0  0  0
   -6.0570   40.4120   20.4550 C   0  0  0  0  0  0  0  0  0  0  0  0
   -4.8000   40.8600   20.8010 C   0  0  0  0  0  3  0  0  0  0  0  0
   -3.8950   39.9560   21.3470 C   0  0  0  0  0  3  0  0  0  0  0  0
   -4.2090   38.6370   21.5520 C   0  0  0  0  0  0  0  0  0  0  0  0
   -5.4700   38.2100   21.1990 C   0  0  0  0  0  0  0  0  0  0  0  0
   -6.4000   39.0730   20.6540 C   0  0  0  0  0  3  0  0  0  0  0  0
   -5.9110   36.5370   21.4450 S   0  0  2  0  0  6  0  0  0  0  0  0
   -4.9290   35.4780   20.3990 C   0  0  0  0  0  1  0  0  0  0  0  0
   -7.3560   36.2900   21.0510 O   0  0  0  0  0  0  0  0  0  0  0  0
   -5.6680   36.1080   22.8580 O   0  0  0  0  0  0  0  0  0  0  0  0
   -7.0320   41.3310   19.8790 C   0  0  0  0  0  0  0  0  0  0  0  0
   -7.7250   41.0000   18.8880 O   0  0  0  0  0  0  0  0  0  0  0  0
   -7.0000   42.8060   21.8120 C   0  0  0  0  0  1  0  0  0  0  0  0
   -7.2020   42.5830   20.4250 O   0  0  0  0  0  0  0  0  0  0  0  0
   -2.3040   38.1380   23.4110 S   0  0  2  0  0  6  0  0  0  0  0  0
   -2.1000   36.9700   24.3350 O   0  0  0  0  0  0  0  0  0  0  0  0
   -2.9940   39.2000   24.2340 O   0  0  0  0  0  0  0  0  0  0  0  0
   -0.7050   38.6720   22.9320 C   0  0  0  0  0  0  0  0  0  0  0  0
   -0.2540   39.3630   21.4470 S   0  0  0  0  0  0  0  0  0  0  0  0
    1.4090   39.6020   21.7380 C   0  0  0  0  0  0  0  0  0  0  0  0
    2.4560   40.1330   20.9730 C   0  0  0  0  0  3  0  0  0  0  0  0
    3.7410   40.2000   21.4920 C   0  0  0  0  0  3  0  0  0  0  0  0
    3.8870   39.7210   22.7670 C   0  0  0  0  0  0  0  0  0  0  0  0
    5.1530   39.7820   23.2910 F   0  0  0  0  0  0  0  0  0  0  0  0
    2.8840   39.2000   23.5300 C   0  0  0  0  0  3  0  0  0  0  0  0
    1.5700   39.1290   23.0090 C   0  0  0  0  0  0  0  0  0  0  0  0
    0.4700   38.6430   23.6310 C   0  0  0  0  0  0  0  0  0  0  0  0
    0.4430   38.0710   25.0460 C   0  0  0  0  0  1  0  0  0  0  0  0
 14 13  2  0
 13 16  1  0
 13  3  1  0
  9 10  1  6
 16 15  1  0
  3  8  2  0
  3  4  1  0
  8  7  1  0
  4  5  2  0
 23 24  1  0
 23 22  2  0
 11  9  2  0
  7  9  1  0
  7  6  2  0
  5  6  1  0
  9 12  2  0
 21 22  1  0
 21 20  1  0
 24 25  2  0
  6  1  1  0
  2  1  1  0
 22 28  1  0
 17  1  1  6
 25 26  1  0
 25 27  1  0
 20 17  1  0
 20 29  2  0
 28 27  2  0
 28 29  1  0
 17 19  2  0
 17 18  2  0
 29 30  1  0
M  RAD  8   4   2   5   2   8   2  10   2  15   2  23   2  24   2  27   2
M  RAD  1  30   2
M  END
>  <_TriposChargeType>  (1) 
GASTEIGER

>  <SuCOS_score>  (1) 
0.2996154013601645

>  <Volume_score>  (1) 
0.45088940448569215

>  <Feature_score>  (1) 
0.14834139823463682

$$$$
