DOCK.F40.P4k69/L1017_ligand.pdbt
     RDKit          3D

 31 34  0  0  0  0  0  0  0  0999 V2000
   -4.4910   39.1400   21.4160 C   0  0  0  0  0  0  0  0  0  0  0  0
   -3.3450   39.8830   21.5710 C   0  0  0  0  0  0  0  0  0  0  0  0
   -2.2590   39.1990   21.2310 N   0  0  0  0  0  4  0  0  0  0  0  0
   -2.6550   37.9850   20.8460 C   0  0  0  0  0  0  0  0  0  0  0  0
   -2.0060   36.8370   20.3990 C   0  0  0  0  0  3  0  0  0  0  0  0
   -2.6170   35.6680   20.0550 C   0  0  0  0  0  3  0  0  0  0  0  0
   -4.0130   35.5990   20.1590 C   0  0  0  0  0  0  0  0  0  0  0  0
   -4.6500   34.4620   19.8540 F   0  0  0  0  0  0  0  0  0  0  0  0
   -4.6950   36.7210   20.5930 C   0  0  0  0  0  3  0  0  0  0  0  0
   -4.0620   37.8960   20.9350 C   0  0  0  0  0  0  0  0  0  0  0  0
   -3.4160   41.3160   22.0180 C   0  0  0  0  0  0  0  0  0  0  0  0
   -3.0890   42.2020   21.2020 O   0  0  0  0  0  1  0  0  0  0  0  0
   -3.8000   41.7230   23.2690 O   0  0  0  0  0  0  0  0  0  0  0  0
   -5.8170   39.3760   21.9620 C   0  0  0  0  0  2  0  0  0  0  0  0
   -6.9680   39.3650   21.1350 N   0  0  0  0  0  0  0  0  0  0  0  0
   -7.8640   39.0360   21.4240 H   0  0  0  0  0  0  0  0  0  0  0  0
   -7.0030   42.1480   21.8010 C   0  0  0  0  0  1  0  0  0  0  0  0
   -7.0520   40.9850   20.4710 S   0  0  2  0  0  6  0  0  0  0  0  0
   -8.2000   41.1730   19.5950 O   0  0  0  0  0  0  0  0  0  0  0  0
   -5.7560   41.1990   19.6460 O   0  0  0  0  0  0  0  0  0  0  0  0
   -0.9190   39.7170   21.1350 C   0  0  0  0  0  2  0  0  0  0  0  0
   -0.0710   39.3650   22.2760 C   0  0  0  0  0  0  0  0  0  0  0  0
   -0.5410   38.8790   23.4430 C   0  0  0  0  0  3  0  0  0  0  0  0
    0.2840   38.5910   24.5000 C   0  0  0  0  0  3  0  0  0  0  0  0
    1.6480   38.7970   24.4020 C   0  0  0  0  0  3  0  0  0  0  0  0
    2.1370   39.3080   23.1860 C   0  0  0  0  0  0  0  0  0  0  0  0
    3.4950   39.5120   23.0690 C   0  0  0  0  0  3  0  0  0  0  0  0
    4.0040   40.0010   21.8910 C   0  0  0  0  0  3  0  0  0  0  0  0
    3.1970   40.2890   20.8240 C   0  0  0  0  0  3  0  0  0  0  0  0
    1.8690   40.0700   20.9700 C   0  0  0  0  0  3  0  0  0  0  0  0
    1.2840   39.5750   22.1640 C   0  0  0  0  0  0  0  0  0  0  0  0
 19 18  2  0
 20 18  2  0
  8  7  1  0
  6  7  2  0
  6  5  1  0
  7  9  1  0
  5  4  2  0
 18 15  1  0
 18 17  1  1
  9 10  2  0
 29 30  1  0
 29 28  2  0
  4 10  1  0
  4  3  1  0
 10  1  1  0
 30 31  2  0
 21  3  1  0
 21 22  1  0
 15 16  1  0
 15 14  1  0
 12 11  1  0
  3  2  1  0
  1  2  2  0
  1 14  1  0
  2 11  1  0
 28 27  1  0
 11 13  2  0
 31 22  1  0
 31 26  1  0
 22 23  2  0
 27 26  2  0
 26 25  1  0
 23 24  1  0
 25 24  2  0
M  RAD  8   5   2   6   2   9   2  14   3  17   2  21   3  23   2  24   2
M  CHG  2   3   1  12  -1
M  RAD  5  25   2  27   2  28   2  29   2  30   2
M  END
>  <_TriposChargeType>  (1) 
GASTEIGER

>  <SuCOS_score>  (1) 
0.33848758749684926

>  <Volume_score>  (1) 
0.5200530328140537

>  <Feature_score>  (1) 
0.15692214217964487

$$$$
