DOCK.F10.P4k60/L1005_ligand.pdbt
     RDKit          3D

 31 34  0  0  0  0  0  0  0  0999 V2000
   -4.2580   38.9430   21.5120 C   0  0  0  0  0  0  0  0  0  0  0  0
   -3.1960   39.8710   21.5800 C   0  0  0  0  0  0  0  0  0  0  0  0
   -2.0400   39.2500   21.3910 N   0  0  0  0  0  4  0  0  0  0  0  0
   -2.3090   37.9000   21.2010 C   0  0  0  0  0  0  0  0  0  0  0  0
   -1.4010   36.8820   21.0030 C   0  0  0  0  0  3  0  0  0  0  0  0
   -1.9100   35.5820   20.8740 C   0  0  0  0  0  3  0  0  0  0  0  0
   -3.2650   35.3710   20.9470 C   0  0  0  0  0  0  0  0  0  0  0  0
   -3.7820   34.1010   20.8200 F   0  0  0  0  0  0  0  0  0  0  0  0
   -4.1390   36.4250   21.1480 C   0  0  0  0  0  3  0  0  0  0  0  0
   -3.6750   37.7240   21.2780 C   0  0  0  0  0  0  0  0  0  0  0  0
   -3.4590   41.2840   21.8560 C   0  0  0  0  0  0  0  0  0  0  0  0
   -3.1990   42.2000   21.0010 O   0  0  0  0  0  1  0  0  0  0  0  0
   -4.0000   41.7580   23.0280 O   0  0  0  0  0  0  0  0  0  0  0  0
   -5.6710   39.2900   21.6960 C   0  0  0  0  0  2  0  0  0  0  0  0
   -7.0010   41.2530   20.8480 C   0  0  0  0  0  0  0  0  0  0  0  0
   -6.9870   41.7640   22.0100 O   0  0  0  0  0  0  0  0  0  0  0  0
   -6.3440   40.0060   20.6760 N   0  0  0  0  0  0  0  0  0  0  0  0
   -6.3860   39.6240   19.6720 H   0  0  0  0  0  0  0  0  0  0  0  0
   -8.4000   41.2210   18.8290 C   0  0  0  0  0  1  0  0  0  0  0  0
   -7.6430   41.9070   19.7990 O   0  0  0  0  0  0  0  0  0  0  0  0
   -0.6900   39.7880   21.4200 C   0  0  0  0  0  2  0  0  0  0  0  0
    0.0150   39.3910   22.6230 C   0  0  0  0  0  0  0  0  0  0  0  0
   -0.6690   38.8440   23.6980 C   0  0  0  0  0  3  0  0  0  0  0  0
   -0.0760   38.3420   24.8340 C   0  0  0  0  0  3  0  0  0  0  0  0
    1.3010   38.4000   24.8830 C   0  0  0  0  0  3  0  0  0  0  0  0
    2.0240   38.9280   23.8620 C   0  0  0  0  0  0  0  0  0  0  0  0
    3.3830   38.9990   24.0000 C   0  0  0  0  0  3  0  0  0  0  0  0
    4.1710   39.5750   23.0100 C   0  0  0  0  0  3  0  0  0  0  0  0
    3.5350   40.0760   21.8790 C   0  0  0  0  0  3  0  0  0  0  0  0
    2.1670   40.0060   21.7330 C   0  0  0  0  0  3  0  0  0  0  0  0
    1.3910   39.4340   22.7100 C   0  0  0  0  0  0  0  0  0  0  0  0
 19 20  1  0
 18 17  1  0
 20 15  1  0
 17 15  1  0
 17 14  1  0
  8  7  1  0
 15 16  2  0
  6  7  2  0
  6  5  1  0
  7  9  1  0
 12 11  1  0
  5  4  2  0
  9 10  2  0
  4 10  1  0
  4  3  1  0
 10  1  1  0
  3 21  1  0
  3  2  1  0
 21 22  1  0
  1  2  2  0
  1 14  1  0
  2 11  1  0
 30 29  1  0
 30 31  2  0
 11 13  2  0
 29 28  2  0
 22 31  1  0
 22 23  2  0
 31 26  1  0
 28 27  1  0
 23 24  1  0
 26 27  2  0
 26 25  1  0
 24 25  2  0
M  RAD  8   5   2   6   2   9   2  14   3  19   2  21   3  23   2  24   2
M  CHG  2   3   1  12  -1
M  RAD  5  25   2  27   2  28   2  29   2  30   2
M  END
>  <_TriposChargeType>  (1) 
GASTEIGER

>  <SuCOS_score>  (1) 
0.365128058035753

>  <Volume_score>  (1) 
0.5267926196000442

>  <Feature_score>  (1) 
0.20346349647146172

$$$$
