DOCK.F10.P4k60/L1008_ligand.pdbt
     RDKit          3D

 32 36  0  0  0  0  0  0  0  0999 V2000
   -2.5420   38.2670   22.9900 C   0  0  0  0  0  3  0  0  0  0  0  0
    4.8340   39.5520   23.6910 C   0  0  0  0  0  1  0  0  0  0  0  0
    3.5080   39.6020   23.0020 C   0  0  0  0  0  0  0  0  0  0  0  0
    3.4310   40.2010   21.7650 C   0  0  0  0  0  3  0  0  0  0  0  0
    2.1900   40.2310   21.1530 C   0  0  0  0  0  3  0  0  0  0  0  0
    1.0780   39.6740   21.7770 C   0  0  0  0  0  0  0  0  0  0  0  0
   -0.5660   39.5260   21.3450 S   0  0  0  0  0  0  0  0  0  0  0  0
   -1.1490   38.7120   22.7210 C   0  0  0  0  0  0  0  0  0  0  0  0
   -0.0230   38.5760   23.4930 C   0  0  0  0  0  0  0  0  0  0  0  0
   -0.1510   37.8750   24.8450 C   0  0  0  0  0  1  0  0  0  0  0  0
    1.1270   39.0730   23.0060 C   0  0  0  0  0  0  0  0  0  0  0  0
    2.4030   39.0620   23.5940 C   0  0  0  0  0  3  0  0  0  0  0  0
   -3.5360   39.3690   22.8880 C   0  0  0  0  0  0  0  0  0  0  0  0
   -4.7170   39.6600   23.3300 C   0  0  0  0  0  0  0  0  0  0  0  0
   -5.6220   38.9840   24.1660 O   0  0  0  0  0  0  0  0  0  0  0  0
   -4.7830   40.9380   22.6580 C   0  0  1  0  0  0  0  0  0  0  0  0
   -4.7170   42.1670   23.5440 C   0  0  0  0  0  1  0  0  0  0  0  0
   -3.4630   40.6090   22.1620 C   0  0  0  0  0  0  0  0  0  0  0  0
   -2.6150   41.1980   21.3990 O   0  0  0  0  0  0  0  0  0  0  0  0
   -5.6220   39.2550   25.1400 H   0  0  0  0  0  0  0  0  0  0  0  0
   -5.7670   41.0480   21.5550 C   0  0  0  0  0  0  0  0  0  0  0  0
   -6.1930   39.9610   20.8310 C   0  0  0  0  0  3  0  0  0  0  0  0
   -7.1110   40.0720   19.8000 C   0  0  0  0  0  3  0  0  0  0  0  0
   -7.6170   41.3010   19.4830 C   0  0  0  0  0  3  0  0  0  0  0  0
   -7.1990   42.4000   20.2010 C   0  0  0  0  0  3  0  0  0  0  0  0
   -6.2770   42.2840   21.2340 C   0  0  0  0  0  3  0  0  0  0  0  0
   -2.8920   37.2570   21.9540 C   0  0  0  0  0  0  0  0  0  0  0  0
   -4.1920   37.0470   21.5480 C   0  0  0  0  0  3  0  0  0  0  0  0
   -4.4520   36.1110   20.6000 C   0  0  0  0  0  3  0  0  0  0  0  0
   -3.4600   35.3740   20.0390 C   0  0  0  0  0  3  0  0  0  0  0  0
   -2.1440   35.5920   20.4540 C   0  0  0  0  0  3  0  0  0  0  0  0
   -1.8450   36.5310   21.4120 C   0  0  0  0  0  3  0  0  0  0  0  0
 24 23  1  0
 24 25  2  0
 23 22  2  0
 30 31  2  0
 30 29  1  0
 25 26  1  0
 31 32  1  0
 29 28  2  0
 22 21  1  0
  5  4  1  0
  5  6  2  0
 26 21  2  0
  7  6  1  0
  7  8  1  0
 19 18  2  0
 32 27  2  0
 28 27  1  0
 21 16  1  0
  4  3  2  0
  6 11  1  0
 27  1  1  0
 18 16  1  0
 18 13  1  0
 16 14  1  0
 16 17  1  1
  8  1  1  0
  8  9  2  0
 13  1  1  0
 13 14  2  0
  3 12  1  0
  3  2  1  0
 11  9  1  0
 11 12  2  0
 14 15  1  0
  9 10  1  0
 15 20  1  0
M  RAD  8   1   2   2   2   4   2   5   2  10   2  12   2  17   2  22   2
M  RAD  8  23   2  24   2  25   2  26   2  28   2  29   2  30   2  31   2
M  RAD  1  32   2
M  END
>  <_TriposChargeType>  (1) 
GASTEIGER

>  <SuCOS_score>  (1) 
0.3752693366001767

>  <Volume_score>  (1) 
0.5391669428792398

>  <Feature_score>  (1) 
0.21137173032111356

$$$$
