DOCK.F10.P4k60/L1007_ligand.pdbt
     RDKit          3D

 31 35  0  0  0  0  0  0  0  0999 V2000
   -2.4970   38.0640   22.6050 C   0  0  0  0  0  3  0  0  0  0  0  0
   -1.1010   38.4890   22.6160 C   0  0  0  0  0  0  0  0  0  0  0  0
   -0.4230   38.3810   23.8430 C   0  0  0  0  0  3  0  0  0  0  0  0
    0.8880   38.7400   24.0100 C   0  0  0  0  0  3  0  0  0  0  0  0
    1.5840   39.2330   22.9300 C   0  0  0  0  0  0  0  0  0  0  0  0
    2.9180   39.6040   23.0820 C   0  0  0  0  0  3  0  0  0  0  0  0
    3.6060   40.0950   22.0020 C   0  0  0  0  0  3  0  0  0  0  0  0
    2.9450   40.2020   20.8000 C   0  0  0  0  0  3  0  0  0  0  0  0
    1.6330   39.8390   20.6440 C   0  0  0  0  0  3  0  0  0  0  0  0
    0.9160   39.3390   21.7230 C   0  0  0  0  0  0  0  0  0  0  0  0
   -0.4030   38.9760   21.5590 C   0  0  0  0  0  3  0  0  0  0  0  0
   -4.8010   41.7700   23.6660 C   0  0  0  0  0  1  0  0  0  0  0  0
   -4.8180   40.7060   22.5580 C   0  0  2  0  0  0  0  0  0  0  0  0
   -4.8330   39.3740   23.0990 C   0  0  0  0  0  0  0  0  0  0  0  0
   -5.6730   38.7050   23.7320 O   0  0  0  0  0  0  0  0  0  0  0  0
   -3.5030   39.1710   22.6050 C   0  0  0  0  0  0  0  0  0  0  0  0
   -3.4880   40.3890   22.1110 C   0  0  0  0  0  0  0  0  0  0  0  0
   -2.5400   41.1430   21.3990 O   0  0  0  0  0  0  0  0  0  0  0  0
   -1.7000   41.4020   21.9050 H   0  0  0  0  0  0  0  0  0  0  0  0
   -5.8180   41.0290   21.5120 C   0  0  0  0  0  0  0  0  0  0  0  0
   -6.3280   39.9940   20.7640 C   0  0  0  0  0  3  0  0  0  0  0  0
   -7.2640   40.2000   19.7670 C   0  0  0  0  0  3  0  0  0  0  0  0
   -7.7140   41.4680   19.4960 C   0  0  0  0  0  3  0  0  0  0  0  0
   -7.2000   42.5040   20.2490 C   0  0  0  0  0  3  0  0  0  0  0  0
   -6.2630   42.2870   21.2440 C   0  0  0  0  0  3  0  0  0  0  0  0
   -2.7070   37.0640   21.5450 C   0  0  0  0  0  0  0  0  0  0  0  0
   -3.9610   36.5620   21.2750 C   0  0  0  0  0  3  0  0  0  0  0  0
   -4.1990   35.6210   20.3090 C   0  0  0  0  0  3  0  0  0  0  0  0
   -3.1490   35.1480   19.5650 C   0  0  0  0  0  3  0  0  0  0  0  0
   -1.8860   35.6420   19.8240 C   0  0  0  0  0  3  0  0  0  0  0  0
   -1.6410   36.5920   20.8000 C   0  0  0  0  0  3  0  0  0  0  0  0
 23 22  1  0
 23 24  2  0
 29 30  2  0
 29 28  1  0
 22 21  2  0
 30 31  1  0
 24 25  1  0
 28 27  2  0
  9  8  2  0
  9 10  1  0
 21 20  1  0
 31 26  2  0
  8  7  1  0
 25 20  2  0
 27 26  1  0
 18 19  1  0
 18 17  1  0
 20 13  1  0
 26  1  1  0
 11 10  2  0
 11  2  1  0
 10  5  1  0
  7  6  2  0
 17 13  1  0
 17 16  2  0
 13 14  1  0
 13 12  1  1
 16  1  1  0
 16 14  1  0
  1  2  1  0
  2  3  2  0
  5  6  1  0
  5  4  2  0
 14 15  2  0
  3  4  1  0
M  RAD  8   1   2   3   2   4   2   6   2   7   2   8   2   9   2  11   2
M  RAD  8  12   2  21   2  22   2  23   2  24   2  25   2  27   2  28   2
M  RAD  3  29   2  30   2  31   2
M  END
>  <_TriposChargeType>  (1) 
GASTEIGER

>  <SuCOS_score>  (1) 
0.3266461630325302

>  <Volume_score>  (1) 
0.5253563142194233

>  <Feature_score>  (1) 
0.1279360118456371

$$$$
