DOCK.F10.P4k60/L1002_ligand.pdbt
     RDKit          3D

 40 44  0  0  0  0  0  0  0  0999 V2000
   -2.2500   37.8260   22.7550 C   0  0  0  0  0  3  0  0  0  0  0  0
    3.2420   39.9010   21.4390 C   0  0  0  0  0  0  0  0  0  0  0  0
    3.4750   39.8010   22.7970 C   0  0  0  0  0  3  0  0  0  0  0  0
    2.4740   39.3470   23.6080 C   0  0  0  0  0  3  0  0  0  0  0  0
    1.2450   38.9970   23.0530 C   0  0  0  0  0  0  0  0  0  0  0  0
    0.0740   38.5200   23.5940 C   0  0  0  0  0  0  0  0  0  0  0  0
   -0.8600   38.3300   22.5970 C   0  0  0  0  0  0  0  0  0  0  0  0
   -0.2720   38.6880   21.4360 N   0  0  0  0  0  0  0  0  0  0  0  0
    1.0000   39.0930   21.6880 C   0  0  0  0  0  0  0  0  0  0  0  0
    2.0260   39.5550   20.8780 C   0  0  0  0  0  3  0  0  0  0  0  0
   -0.6570   38.6830   20.4660 H   0  0  0  0  0  0  0  0  0  0  0  0
    4.4590   39.6010   19.3140 C   0  0  0  0  0  1  0  0  0  0  0  0
    4.3680   40.4000   20.5990 C   0  0  0  0  0  2  0  0  0  0  0  0
   -0.1350   38.2600   25.0280 C   0  0  0  0  0  2  0  0  0  0  0  0
    0.5500   37.0410   25.5300 C   0  0  0  0  0  2  0  0  0  0  0  0
    0.6000   36.0430   24.4930 N   0  0  0  0  0  0  0  0  0  0  0  0
   -0.3260   35.0080   24.3180 C   0  0  0  0  0  0  0  0  0  0  0  0
   -0.2020   34.0020   23.1970 C   0  0  0  0  0  1  0  0  0  0  0  0
   -1.2940   34.9150   25.1180 O   0  0  0  0  0  0  0  0  0  0  0  0
    1.4090   36.1010   23.8090 H   0  0  0  0  0  0  0  0  0  0  0  0
   -3.2280   38.9640   22.8300 C   0  0  0  0  0  0  0  0  0  0  0  0
   -3.5030   39.8800   21.9510 C   0  0  0  0  0  0  0  0  0  0  0  0
   -2.9180   40.0080   20.6830 O   0  0  0  0  0  0  0  0  0  0  0  0
   -4.5410   40.8230   22.4340 C   0  0  0  0  0  3  0  0  0  0  0  0
   -5.0570   40.2300   23.7020 C   0  0  0  0  0  2  0  0  0  0  0  0
   -4.0540   39.1850   24.0090 C   0  0  0  0  0  0  0  0  0  0  0  0
   -3.9610   38.5980   25.1320 O   0  0  0  0  0  0  0  0  0  0  0  0
   -3.5510   40.1250   19.9000 H   0  0  0  0  0  0  0  0  0  0  0  0
   -5.6260   41.0070   21.4400 C   0  0  0  0  0  0  0  0  0  0  0  0
   -6.1590   39.9090   20.8080 C   0  0  0  0  0  3  0  0  0  0  0  0
   -7.1740   40.0370   19.8690 C   0  0  0  0  0  3  0  0  0  0  0  0
   -7.6580   41.2990   19.5640 C   0  0  0  0  0  3  0  0  0  0  0  0
   -7.1200   42.4000   20.2000 C   0  0  0  0  0  3  0  0  0  0  0  0
   -6.1130   42.2510   21.1300 C   0  0  0  0  0  3  0  0  0  0  0  0
   -2.5790   36.9080   21.6430 C   0  0  0  0  0  0  0  0  0  0  0  0
   -3.8830   36.5130   21.4890 C   0  0  0  0  0  3  0  0  0  0  0  0
   -4.2510   35.6610   20.4780 C   0  0  0  0  0  3  0  0  0  0  0  0
   -3.3040   35.1870   19.5980 C   0  0  0  0  0  3  0  0  0  0  0  0
   -2.0010   35.5970   19.7710 C   0  0  0  0  0  3  0  0  0  0  0  0
   -1.6270   36.4540   20.7860 C   0  0  0  0  0  3  0  0  0  0  0  0
 12 13  1  0
 32 31  1  0
 32 33  2  0
 38 39  2  0
 38 37  1  0
 39 40  1  0
 31 30  2  0
 28 23  1  0
 33 34  1  0
 11  8  1  0
 37 36  2  0
 13  2  1  0
 23 22  1  0
 40 35  2  0
 30 29  1  0
 10  2  2  0
 10  9  1  0
 34 29  2  0
  8  9  1  0
  8  7  1  0
  2  3  1  0
 29 24  1  0
 36 35  1  0
 35  1  1  0
  9  5  2  0
 22 24  1  0
 22 21  2  0
 24 25  1  0
  7  1  1  0
  7  6  2  0
  1 21  1  0
  3  4  2  0
 21 26  1  0
  5  6  1  0
  5  4  1  0
 18 17  1  0
  6 14  1  0
 25 26  1  0
 20 16  1  0
 26 27  2  0
 17 16  1  0
 17 19  2  0
 16 15  1  0
 14 15  1  0
M  RAD  8   1   2   3   2   4   2  10   2  12   2  13   3  14   3  15   3
M  RAD  8  18   2  24   2  25   3  30   2  31   2  32   2  33   2  34   2
M  RAD  5  36   2  37   2  38   2  39   2  40   2
M  END
>  <_TriposChargeType>  (1) 
GASTEIGER

>  <SuCOS_score>  (1) 
0.3238633763294179

>  <Volume_score>  (1) 
0.5342556723851688

>  <Feature_score>  (1) 
0.11347108027366704

$$$$
