DOCK.F10.P4k60/L1006_ligand.pdbt
     RDKit          3D

 42 46  0  0  0  0  0  0  0  0999 V2000
   -2.3300   38.0160   22.3980 C   0  0  0  0  0  3  0  0  0  0  0  0
   -0.0520   38.6020   23.5240 C   0  0  0  0  0  0  0  0  0  0  0  0
   -0.9770   38.5230   22.4730 C   0  0  0  0  0  0  0  0  0  0  0  0
   -0.2780   38.9060   21.3630 N   0  0  0  0  0  0  0  0  0  0  0  0
    0.9790   39.1990   21.6460 C   0  0  0  0  0  0  0  0  0  0  0  0
    2.0160   39.6090   20.8000 C   0  0  0  0  0  3  0  0  0  0  0  0
    3.2640   39.8420   21.3070 C   0  0  0  0  0  0  0  0  0  0  0  0
    4.3910   40.2830   20.4200 C   0  0  0  0  0  1  0  0  0  0  0  0
    3.4370   39.6550   22.6540 C   0  0  0  0  0  3  0  0  0  0  0  0
    2.4170   39.2530   23.4860 C   0  0  0  0  0  3  0  0  0  0  0  0
    1.1520   39.0140   22.9960 C   0  0  0  0  0  0  0  0  0  0  0  0
   -0.6750   38.9700   20.3780 H   0  0  0  0  0  0  0  0  0  0  0  0
   -0.3800   38.3950   24.9110 C   0  0  0  0  0  2  0  0  0  0  0  0
   -0.8300   37.0370   25.3780 C   0  0  1  0  0  0  0  0  0  0  0  0
   -0.5990   36.8960   26.9000 C   0  0  0  0  0  1  0  0  0  0  0  0
   -2.2540   36.7050   25.1070 C   0  0  0  0  0  1  0  0  0  0  0  0
   -0.0000   33.8230   23.4000 C   0  0  0  0  0  1  0  0  0  0  0  0
   -0.7310   34.9650   24.0450 C   0  0  0  0  0  0  0  0  0  0  0  0
   -1.9800   35.0430   23.9340 O   0  0  0  0  0  0  0  0  0  0  0  0
    0.0010   35.9590   24.7840 N   0  0  0  0  0  0  0  0  0  0  0  0
    1.0210   35.9110   24.8840 H   0  0  0  0  0  0  0  0  0  0  0  0
   -3.3140   39.1620   22.4650 C   0  0  0  0  0  0  0  0  0  0  0  0
   -4.5000   39.3680   22.9410 C   0  0  0  0  0  0  0  0  0  0  0  0
   -5.4080   38.5500   23.6330 O   0  0  0  0  0  0  0  0  0  0  0  0
   -4.5800   40.7660   22.5060 C   0  0  1  0  0  0  0  0  0  0  0  0
   -4.6000   41.8080   23.5830 C   0  0  0  0  0  1  0  0  0  0  0  0
   -3.2410   40.5220   21.9710 C   0  0  0  0  0  0  0  0  0  0  0  0
   -2.3830   41.2000   21.3460 O   0  0  0  0  0  0  0  0  0  0  0  0
   -5.4790   38.7180   24.6350 H   0  0  0  0  0  0  0  0  0  0  0  0
   -5.6660   40.9040   21.4860 C   0  0  0  0  0  0  0  0  0  0  0  0
   -6.2010   39.8090   20.8290 C   0  0  0  0  0  3  0  0  0  0  0  0
   -7.2090   39.9590   19.8880 C   0  0  0  0  0  3  0  0  0  0  0  0
   -7.7060   41.2070   19.5830 C   0  0  0  0  0  0  0  0  0  0  0  0
   -8.8000   41.3780   18.5620 C   0  0  0  0  0  1  0  0  0  0  0  0
   -7.2000   42.3030   20.2120 C   0  0  0  0  0  3  0  0  0  0  0  0
   -6.1980   42.1300   21.1440 C   0  0  0  0  0  3  0  0  0  0  0  0
   -2.7390   37.0550   21.3950 C   0  0  0  0  0  0  0  0  0  0  0  0
   -1.8040   36.4840   20.5820 C   0  0  0  0  0  3  0  0  0  0  0  0
   -2.1460   35.5750   19.6030 C   0  0  0  0  0  3  0  0  0  0  0  0
   -3.4650   35.1980   19.4000 C   0  0  0  0  0  3  0  0  0  0  0  0
   -4.4200   35.7600   20.2060 C   0  0  0  0  0  3  0  0  0  0  0  0
   -4.0670   36.6650   21.1790 C   0  0  0  0  0  3  0  0  0  0  0  0
 34 33  1  0
 40 39  1  0
 40 41  2  0
 33 32  1  0
 33 35  2  0
 39 38  2  0
 32 31  2  0
 41 42  1  0
 35 36  1  0
 12  4  1  0
  8  7  1  0
 38 37  1  0
  6  7  2  0
  6  5  1  0
 31 30  1  0
 36 30  2  0
 42 37  2  0
  7  9  1  0
 28 27  2  0
  4  5  1  0
  4  3  1  0
 37  1  1  0
 30 25  1  0
  5 11  2  0
 27 22  1  0
 27 25  1  0
  1 22  1  0
  1  3  1  0
 22 23  2  0
  3  2  2  0
 25 23  1  0
 25 26  1  1
  9 10  2  0
 23 24  1  0
 11 10  1  0
 11  2  1  0
 17 18  1  0
  2 13  1  0
 24 29  1  0
 19 18  2  0
 18 20  1  0
 20 21  1  0
 20 14  1  0
 13 14  1  0
 14 16  1  1
 14 15  1  0
M  RAD  8   1   2   6   2   8   2   9   2  10   2  13   3  15   2  16   2
M  RAD  8  17   2  26   2  31   2  32   2  34   2  35   2  36   2  38   2
M  RAD  4  39   2  40   2  41   2  42   2
M  END
>  <_TriposChargeType>  (1) 
GASTEIGER

>  <SuCOS_score>  (1) 
0.3580276876188839

>  <Volume_score>  (1) 
0.5590778097982709

>  <Feature_score>  (1) 
0.15697756543949695

$$$$
