DOCK.F10.P4k60/L1014_ligand.pdbt
     RDKit          3D

 24 27  0  0  0  0  0  0  0  0999 V2000
   -0.6640   39.4670   21.1890 C   0  0  0  0  0  2  0  0  0  0  0  0
    1.5690   40.4850   20.4330 C   0  0  0  0  0  1  0  0  0  0  0  0
    2.1540   39.9050   21.6270 C   0  0  0  0  0  0  0  0  0  0  0  0
    3.5360   39.9940   21.8860 C   0  0  0  0  0  3  0  0  0  0  0  0
    4.1190   39.5550   23.0390 C   0  0  0  0  0  3  0  0  0  0  0  0
    3.3280   39.0000   24.0000 C   0  0  0  0  0  3  0  0  0  0  0  0
    1.9610   38.8870   23.7980 C   0  0  0  0  0  0  0  0  0  0  0  0
    1.1900   38.3720   24.8040 C   0  0  0  0  0  3  0  0  0  0  0  0
   -0.1560   38.2990   24.6350 C   0  0  0  0  0  3  0  0  0  0  0  0
   -0.7200   38.7240   23.4910 C   0  0  0  0  0  3  0  0  0  0  0  0
    0.0160   39.2680   22.3960 C   0  0  0  0  0  0  0  0  0  0  0  0
    1.3650   39.3350   22.6080 C   0  0  0  0  0  0  0  0  0  0  0  0
   -2.0510   38.8900   21.3480 N   0  0  0  0  0  0  0  0  0  0  0  0
   -3.1620   39.5130   21.7630 C   0  0  0  0  0  0  0  0  0  0  0  0
   -4.1900   38.5400   21.8260 C   0  0  0  0  0  3  0  0  0  0  0  0
   -3.6820   37.3310   21.4460 C   0  0  0  0  0  0  0  0  0  0  0  0
   -4.2170   36.0460   21.3400 C   0  0  0  0  0  3  0  0  0  0  0  0
   -3.4440   34.9820   20.9440 C   0  0  0  0  0  3  0  0  0  0  0  0
   -2.1250   35.2280   20.6560 C   0  0  0  0  0  3  0  0  0  0  0  0
   -1.6000   36.5060   20.7630 C   0  0  0  0  0  3  0  0  0  0  0  0
   -2.3500   37.5880   21.1570 C   0  0  0  0  0  0  0  0  0  0  0  0
   -3.3770   40.8950   22.1020 C   0  0  0  0  0  0  0  0  0  0  0  0
   -4.0000   41.1610   23.1990 O   0  0  0  0  0  1  0  0  0  0  0  0
   -3.0000   42.0000   21.4000 O   0  0  0  0  0  0  0  0  0  0  0  0
  2  3  1  0
 19 20  1  0
 19 18  2  0
 20 21  2  0
 18 17  1  0
 21 13  1  0
 21 16  1  0
  1 13  1  0
  1 11  1  0
 17 16  2  0
 13 14  1  0
 24 22  2  0
 16 15  1  0
  3  4  2  0
  3 12  1  0
 14 15  2  0
 14 22  1  0
  4  5  1  0
 22 23  1  0
 11 12  2  0
 11 10  1  0
 12  7  1  0
  5  6  2  0
 10  9  2  0
  7  6  1  0
  7  8  2  0
  9  8  1  0
M  RAD  8   1   3   2   2   4   2   5   2   6   2   8   2   9   2  10   2
M  CHG  1  23  -1
M  RAD  5  15   2  17   2  18   2  19   2  20   2
M  END
>  <_TriposChargeType>  (1) 
GASTEIGER

>  <SuCOS_score>  (1) 
0.3744702967245026

>  <Volume_score>  (1) 
0.419953596287703

>  <Feature_score>  (1) 
0.32898699716130225

$$$$
