DOCK.F10.P4k60/L1017_ligand.pdbt
     RDKit          3D

 31 34  0  0  0  0  0  0  0  0999 V2000
   -4.4210   39.1150   21.4160 C   0  0  0  0  0  0  0  0  0  0  0  0
   -3.3660   39.9590   21.6710 C   0  0  0  0  0  0  0  0  0  0  0  0
   -2.2010   39.3240   21.6330 N   0  0  0  0  0  4  0  0  0  0  0  0
   -2.4520   38.0440   21.3560 C   0  0  0  0  0  0  0  0  0  0  0  0
   -1.6710   36.9020   21.2000 C   0  0  0  0  0  3  0  0  0  0  0  0
   -2.1430   35.6550   20.9180 C   0  0  0  0  0  3  0  0  0  0  0  0
   -3.5270   35.4910   20.7750 C   0  0  0  0  0  0  0  0  0  0  0  0
   -4.0340   34.2790   20.5220 F   0  0  0  0  0  0  0  0  0  0  0  0
   -4.3370   36.6030   20.9170 C   0  0  0  0  0  3  0  0  0  0  0  0
   -3.8430   37.8570   21.2000 C   0  0  0  0  0  0  0  0  0  0  0  0
   -3.5960   41.4280   21.8920 C   0  0  0  0  0  0  0  0  0  0  0  0
   -3.2010   42.2220   21.0150 O   0  0  0  0  0  1  0  0  0  0  0  0
   -4.1970   41.9630   23.0010 O   0  0  0  0  0  0  0  0  0  0  0  0
   -5.8370   39.3160   21.6740 C   0  0  0  0  0  2  0  0  0  0  0  0
   -6.7860   39.3140   20.6210 N   0  0  0  0  0  0  0  0  0  0  0  0
   -7.7150   38.9600   20.7020 H   0  0  0  0  0  0  0  0  0  0  0  0
   -8.2020   41.2000   19.0000 C   0  0  0  0  0  1  0  0  0  0  0  0
   -6.7660   40.9530   20.0020 S   0  0  2  0  0  6  0  0  0  0  0  0
   -5.5270   41.2740   19.3060 O   0  0  0  0  0  0  0  0  0  0  0  0
   -6.9100   41.8960   21.2230 O   0  0  0  0  0  0  0  0  0  0  0  0
   -0.8960   39.9280   21.7100 C   0  0  0  0  0  2  0  0  0  0  0  0
   -0.0620   39.3880   22.7870 C   0  0  0  0  0  0  0  0  0  0  0  0
   -0.5530   38.8000   23.8970 C   0  0  0  0  0  3  0  0  0  0  0  0
    0.2600   38.3350   24.8980 C   0  0  0  0  0  3  0  0  0  0  0  0
    1.6340   38.4590   24.8000 C   0  0  0  0  0  3  0  0  0  0  0  0
    2.1450   39.0760   23.6430 C   0  0  0  0  0  0  0  0  0  0  0  0
    3.5130   39.2010   23.5260 C   0  0  0  0  0  3  0  0  0  0  0  0
    4.0420   39.7900   22.4050 C   0  0  0  0  0  3  0  0  0  0  0  0
    3.2460   40.2550   21.3940 C   0  0  0  0  0  3  0  0  0  0  0  0
    1.9080   40.1100   21.5370 C   0  0  0  0  0  3  0  0  0  0  0  0
    1.3030   39.5180   22.6760 C   0  0  0  0  0  0  0  0  0  0  0  0
 18 17  1  6
 19 18  2  0
 18 15  1  0
 18 20  2  0
  8  7  1  0
 15 16  1  0
 15 14  1  0
  7  9  1  0
  7  6  2  0
  9 10  2  0
  6  5  1  0
 12 11  1  0
 10  4  1  0
 10  1  1  0
  5  4  2  0
  4  3  1  0
 29 30  1  0
 29 28  2  0
  1  2  2  0
  1 14  1  0
 30 31  2  0
  3  2  1  0
  3 21  1  0
  2 11  1  0
 21 22  1  0
 11 13  2  0
 28 27  1  0
 31 22  1  0
 31 26  1  0
 22 23  2  0
 27 26  2  0
 26 25  1  0
 23 24  1  0
 25 24  2  0
M  RAD  8   5   2   6   2   9   2  14   3  17   2  21   3  23   2  24   2
M  CHG  2   3   1  12  -1
M  RAD  5  25   2  27   2  28   2  29   2  30   2
M  END
>  <_TriposChargeType>  (1) 
GASTEIGER

>  <SuCOS_score>  (1) 
0.3598946883928772

>  <Volume_score>  (1) 
0.5234780687216882

>  <Feature_score>  (1) 
0.19631130806406616

$$$$
