DOCK.F40.P2hvx/L1004_ligand.pdbt
     RDKit          3D

 33 36  0  0  0  0  0  0  0  0999 V2000
   -2.6230   37.9870   22.2330 C   0  0  0  0  0  3  0  0  0  0  0  0
   -0.2720   38.2880   23.2460 C   0  0  0  0  0  0  0  0  0  0  0  0
   -1.2630   38.4810   22.2930 C   0  0  0  0  0  0  0  0  0  0  0  0
   -0.7110   39.2280   21.2940 N   0  0  0  0  0  0  0  0  0  0  0  0
    0.5700   39.5230   21.5480 C   0  0  0  0  0  0  0  0  0  0  0  0
    1.5290   40.2390   20.8570 C   0  0  0  0  0  3  0  0  0  0  0  0
    2.8050   40.4000   21.3590 C   0  0  0  0  0  3  0  0  0  0  0  0
    3.1060   39.8260   22.5750 C   0  0  0  0  0  0  0  0  0  0  0  0
    4.3540   39.9660   23.0860 F   0  0  0  0  0  0  0  0  0  0  0  0
    2.1250   39.1080   23.2550 C   0  0  0  0  0  3  0  0  0  0  0  0
    0.8470   38.9280   22.7840 C   0  0  0  0  0  0  0  0  0  0  0  0
   -1.1900   39.5630   20.4030 H   0  0  0  0  0  0  0  0  0  0  0  0
   -0.3990   36.0770   24.4520 C   0  0  0  0  0  1  0  0  0  0  0  0
   -0.4940   37.5810   24.4900 C   0  0  0  0  0  3  0  0  0  0  0  0
    0.6010   37.9960   25.5170 C   0  0  0  0  0  1  0  0  0  0  0  0
   -3.6650   39.0900   22.2860 C   0  0  0  0  0  0  0  0  0  0  0  0
   -3.7670   40.1680   21.5350 C   0  0  0  0  0  0  0  0  0  0  0  0
   -2.8560   40.4620   20.5060 O   0  0  0  0  0  0  0  0  0  0  0  0
   -4.9350   40.9990   21.9100 C   0  0  0  0  0  3  0  0  0  0  0  0
   -5.5260   40.3170   23.0130 N   0  0  0  0  0  0  0  0  0  0  0  0
   -4.7660   39.1470   23.2420 C   0  0  0  0  0  0  0  0  0  0  0  0
   -4.9550   38.2430   24.1260 O   0  0  0  0  0  0  0  0  0  0  0  0
   -3.1970   40.6070   19.5580 H   0  0  0  0  0  0  0  0  0  0  0  0
   -6.3630   40.6380   23.5410 H   0  0  0  0  0  0  0  0  0  0  0  0
   -5.8890   41.1990   20.7580 C   0  0  0  0  0  3  0  0  0  0  0  0
   -6.8010   39.9980   20.5950 C   0  0  0  0  0  1  0  0  0  0  0  0
   -6.7500   42.3980   21.0580 C   0  0  0  0  0  1  0  0  0  0  0  0
   -2.9520   36.9660   21.2390 C   0  0  0  0  0  0  0  0  0  0  0  0
   -2.0180   36.3860   20.4000 C   0  0  0  0  0  3  0  0  0  0  0  0
   -2.3630   35.4070   19.4880 C   0  0  0  0  0  3  0  0  0  0  0  0
   -3.6630   34.9640   19.3720 C   0  0  0  0  0  3  0  0  0  0  0  0
   -4.5980   35.5350   20.2010 C   0  0  0  0  0  3  0  0  0  0  0  0
   -4.2430   36.5030   21.1020 C   0  0  0  0  0  3  0  0  0  0  0  0
 31 30  1  0
 31 32  2  0
 30 29  2  0
 23 18  1  0
 32 33  1  0
 29 28  1  0
 12  4  1  0
 18 17  1  0
 26 25  1  0
 25 27  1  0
 25 19  1  0
  6  7  2  0
  6  5  1  0
 33 28  2  0
 28  1  1  0
  4  5  1  0
  4  3  1  0
  7  8  1  0
 17 19  1  0
 17 16  2  0
  5 11  2  0
 19 20  1  0
  1 16  1  0
  1  3  1  0
 16 21  1  0
  3  2  2  0
  8  9  1  0
  8 10  2  0
 11  2  1  0
 11 10  1  0
 20 21  1  0
 20 24  1  0
 21 22  2  0
  2 14  1  0
 13 14  1  0
 14 15  1  0
M  RAD  8   1   2   6   2   7   2  10   2  13   2  14   2  15   2  19   2
M  RAD  8  25   2  26   2  27   2  29   2  30   2  31   2  32   2  33   2
M  END
>  <_TriposChargeType>  (1) 
GASTEIGER

>  <SuCOS_score>  (1) 
0.2836439918805243

>  <Volume_score>  (1) 
0.49906087725113246

>  <Feature_score>  (1) 
0.06822710650991612

$$$$
