DOCK.F40.P2hvx/L1009_ligand.pdbt
     RDKit          3D

 34 38  0  0  0  0  0  0  0  0999 V2000
   -2.4340   38.2670   22.2760 C   0  0  0  0  0  3  0  0  0  0  0  0
   -0.1700   37.9050   24.5120 C   0  0  0  0  0  1  0  0  0  0  0  0
   -0.0390   38.5510   23.1710 C   0  0  0  0  0  0  0  0  0  0  0  0
   -1.0100   38.7150   22.2080 C   0  0  0  0  0  0  0  0  0  0  0  0
   -0.3950   39.3560   21.2000 N   0  0  0  0  0  0  0  0  0  0  0  0
    0.8860   39.6000   21.4740 C   0  0  0  0  0  0  0  0  0  0  0  0
    1.9290   40.2220   20.7790 C   0  0  0  0  0  3  0  0  0  0  0  0
    3.1670   40.3030   21.3810 C   0  0  0  0  0  3  0  0  0  0  0  0
    3.4280   39.8000   22.6340 C   0  0  0  0  0  0  0  0  0  0  0  0
    4.6770   39.9130   23.1780 F   0  0  0  0  0  0  0  0  0  0  0  0
    2.4000   39.1900   23.3150 C   0  0  0  0  0  3  0  0  0  0  0  0
    1.1450   39.0980   22.7300 C   0  0  0  0  0  0  0  0  0  0  0  0
   -0.8320   39.6530   20.2820 H   0  0  0  0  0  0  0  0  0  0  0  0
   -3.3830   39.2800   21.7700 C   0  0  0  0  0  0  0  0  0  0  0  0
   -4.6600   39.1870   21.4810 C   0  0  0  0  0  0  0  0  0  0  0  0
   -5.4780   38.0360   21.5910 O   0  0  0  0  0  0  0  0  0  0  0  0
   -5.1810   40.4840   21.0030 C   0  0  0  0  0  3  0  0  0  0  0  0
   -4.1090   41.3740   21.0590 O   0  0  0  0  0  0  0  0  0  0  0  0
   -3.0020   40.6860   21.5050 C   0  0  0  0  0  0  0  0  0  0  0  0
   -1.8670   41.2080   21.6490 O   0  0  0  0  0  0  0  0  0  0  0  0
   -5.9420   37.7660   20.7210 H   0  0  0  0  0  0  0  0  0  0  0  0
   -6.2630   41.0320   21.9170 C   0  0  0  0  0  2  0  0  0  0  0  0
   -5.7340   42.2090   22.6520 C   0  0  0  0  0  0  0  0  0  0  0  0
   -5.8830   43.4790   22.1410 C   0  0  0  0  0  3  0  0  0  0  0  0
   -5.4000   44.6000   22.8000 C   0  0  0  0  0  3  0  0  0  0  0  0
   -4.7400   44.4490   24.0180 C   0  0  0  0  0  3  0  0  0  0  0  0
   -4.6000   43.1790   24.5160 C   0  0  0  0  0  3  0  0  0  0  0  0
   -5.0810   42.0670   23.8600 C   0  0  0  0  0  3  0  0  0  0  0  0
   -2.6180   36.9430   21.6580 C   0  0  0  0  0  0  0  0  0  0  0  0
   -3.0090   35.8270   22.3970 C   0  0  0  0  0  3  0  0  0  0  0  0
   -3.1580   34.6150   21.7590 C   0  0  0  0  0  3  0  0  0  0  0  0
   -2.9330   34.4720   20.4070 C   0  0  0  0  0  3  0  0  0  0  0  0
   -2.5420   35.5820   19.6610 C   0  0  0  0  0  3  0  0  0  0  0  0
   -2.3990   36.7690   20.3070 C   0  0  0  0  0  3  0  0  0  0  0  0
 33 34  2  0
 33 32  1  0
 13  5  1  0
 34 29  1  0
 32 31  2  0
 21 16  1  0
  7  8  2  0
  7  6  1  0
 17 18  1  0
 17 15  1  0
 17 22  1  0
 18 19  1  0
  5  6  1  0
  5  4  1  0
  8  9  1  0
  6 12  2  0
 15 16  1  0
 15 14  2  0
 19 20  2  0
 19 14  1  0
 29  1  1  0
 29 30  2  0
 31 30  1  0
 14  1  1  0
 22 23  1  0
 24 23  2  0
 24 25  1  0
  4  1  1  0
  4  3  2  0
  9 10  1  0
  9 11  2  0
 23 28  1  0
 12  3  1  0
 12 11  1  0
 25 26  2  0
  3  2  1  0
 28 27  2  0
 26 27  1  0
M  RAD  8   1   2   2   2   7   2   8   2  11   2  17   2  22   3  24   2
M  RAD  8  25   2  26   2  27   2  28   2  30   2  31   2  32   2  33   2
M  RAD  1  34   2
M  END
>  <_TriposChargeType>  (1) 
GASTEIGER

>  <SuCOS_score>  (1) 
0.37341801777771366

>  <Volume_score>  (1) 
0.5513202960998784

>  <Feature_score>  (1) 
0.19551573945554893

$$$$
