DOCK.F40.P2hvx/L1003_ligand.pdbt
     RDKit          3D

 32 35  0  0  0  0  0  0  0  0999 V2000
   -3.3030   39.3990   22.6030 N   0  0  0  0  0  0  0  0  0  0  0  0
   -3.0220   40.2470   23.1850 H   0  0  0  0  0  0  0  0  0  0  0  0
   -4.4980   39.4970   21.8910 C   0  0  0  0  0  0  0  0  0  0  0  0
   -5.3780   38.4360   21.7420 C   0  0  0  0  0  3  0  0  0  0  0  0
   -6.5550   38.5550   21.0230 C   0  0  0  0  0  3  0  0  0  0  0  0
   -6.8950   39.7470   20.4230 C   0  0  0  0  0  0  0  0  0  0  0  0
   -6.0360   40.8080   20.5600 C   0  0  0  0  0  3  0  0  0  0  0  0
   -4.8550   40.6820   21.2840 C   0  0  0  0  0  0  0  0  0  0  0  0
   -8.1180   39.9340   19.6550 C   0  0  0  0  0  0  0  0  0  0  0  0
   -9.1170   38.9740   19.6360 C   0  0  0  0  0  3  0  0  0  0  0  0
  -10.2850   39.1200   18.9190 C   0  0  0  0  0  3  0  0  0  0  0  0
  -10.4640   40.2580   18.1980 N   0  0  0  0  0  0  0  0  0  0  0  0
   -9.5120   41.2000   18.2000 C   0  0  0  0  0  3  0  0  0  0  0  0
   -8.3370   41.0740   18.9100 C   0  0  0  0  0  3  0  0  0  0  0  0
   -4.0020   41.8800   21.3610 C   0  0  2  0  0  0  0  0  0  0  0  0
   -2.6690   41.6260   21.1970 F   0  0  0  0  0  0  0  0  0  0  0  0
   -4.2500   42.5200   22.5840 F   0  0  0  0  0  0  0  0  0  0  0  0
   -4.3530   42.8060   20.3990 F   0  0  0  0  0  0  0  0  0  0  0  0
   -2.2230   38.0770   22.6560 S   0  0  1  0  0  6  0  0  0  0  0  0
   -2.5050   37.1970   23.8530 O   0  0  0  0  0  0  0  0  0  0  0  0
   -2.4390   37.1630   21.4530 O   0  0  0  0  0  0  0  0  0  0  0  0
    0.2000   37.8550   24.9040 C   0  0  0  0  0  1  0  0  0  0  0  0
    0.4600   38.4980   23.5490 C   0  0  0  0  0  0  0  0  0  0  0  0
   -0.5460   38.5680   22.6440 C   0  0  0  0  0  0  0  0  0  0  0  0
    0.1980   39.3380   21.3010 S   0  0  0  0  0  0  0  0  0  0  0  0
    1.7620   39.5440   21.9370 C   0  0  0  0  0  0  0  0  0  0  0  0
    2.9290   40.1050   21.4160 C   0  0  0  0  0  3  0  0  0  0  0  0
    4.0860   40.1450   22.1640 C   0  0  0  0  0  3  0  0  0  0  0  0
    3.9910   39.6000   23.4270 C   0  0  0  0  0  0  0  0  0  0  0  0
    5.1340   39.6340   24.1770 F   0  0  0  0  0  0  0  0  0  0  0  0
    2.8530   39.0480   23.9470 C   0  0  0  0  0  3  0  0  0  0  0  0
    1.6680   39.0060   23.1850 C   0  0  0  0  0  0  0  0  0  0  0  0
 12 13  2  0
 12 11  1  0
 13 14  1  0
 14  9  2  0
 11 10  2  0
 10  9  1  0
  9  6  1  0
 15 18  1  6
  6  7  2  0
  6  5  1  0
  7  8  1  0
  5  4  2  0
 16 15  1  0
  8 15  1  0
  8  3  2  0
 25 26  1  0
 25 24  1  0
 15 17  1  0
 27 26  1  0
 27 28  2  0
 21 19  2  0
  4  3  1  0
  3  1  1  0
 26 32  2  0
 28 29  1  0
 19  1  1  6
  1  2  1  0
 24 19  1  0
 24 23  2  0
 19 20  2  0
 32 23  1  0
 32 31  1  0
 29 31  2  0
 29 30  1  0
 23 22  1  0
M  RAD  8   4   2   5   2   7   2  10   2  11   2  13   2  14   2  22   2
M  RAD  3  27   2  28   2  31   2
M  END
>  <_TriposChargeType>  (1) 
GASTEIGER

>  <SuCOS_score>  (1) 
0.33574829755881613

>  <Volume_score>  (1) 
0.4475077194530216

>  <Feature_score>  (1) 
0.22398887566461068

$$$$
