DOCK.F40.P2hvx/L1010_ligand.pdbt
     RDKit          3D

 24 27  0  0  0  0  0  0  0  0999 V2000
   -3.0590   39.1730   21.6720 C   0  0  0  0  0  0  0  0  0  0  0  0
   -4.2430   38.4820   21.5180 C   0  0  0  0  0  3  0  0  0  0  0  0
   -3.9120   37.2320   21.0520 C   0  0  0  0  0  0  0  0  0  0  0  0
   -4.6940   36.1180   20.7180 C   0  0  0  0  0  3  0  0  0  0  0  0
   -4.1300   34.9510   20.2650 C   0  0  0  0  0  3  0  0  0  0  0  0
   -2.7720   34.8980   20.1430 C   0  0  0  0  0  3  0  0  0  0  0  0
   -1.9990   35.9920   20.4710 C   0  0  0  0  0  3  0  0  0  0  0  0
   -2.5580   37.1820   20.9320 C   0  0  0  0  0  0  0  0  0  0  0  0
   -2.0510   38.3630   21.3100 N   0  0  0  0  0  0  0  0  0  0  0  0
   -3.4010   40.8020   23.3020 O   0  0  0  0  0  1  0  0  0  0  0  0
   -2.9820   40.5520   22.1530 C   0  0  0  0  0  0  0  0  0  0  0  0
   -2.4690   41.5920   21.4000 O   0  0  0  0  0  0  0  0  0  0  0  0
   -0.6640   38.6880   21.3200 C   0  0  0  0  0  2  0  0  0  0  0  0
   -0.0080   38.5350   22.6190 C   0  0  0  0  0  0  0  0  0  0  0  0
   -0.6120   37.9540   23.7080 C   0  0  0  0  0  3  0  0  0  0  0  0
    0.1060   37.8660   24.8790 C   0  0  0  0  0  3  0  0  0  0  0  0
    1.3970   38.3340   25.0010 C   0  0  0  0  0  3  0  0  0  0  0  0
    2.0170   38.9240   23.9000 C   0  0  0  0  0  0  0  0  0  0  0  0
    3.3070   39.3990   24.0020 C   0  0  0  0  0  3  0  0  0  0  0  0
    3.8900   39.9760   22.8950 C   0  0  0  0  0  3  0  0  0  0  0  0
    3.2130   40.0820   21.7160 C   0  0  0  0  0  0  0  0  0  0  0  0
    3.7540   40.6460   20.5990 F   0  0  0  0  0  0  0  0  0  0  0  0
    1.9320   39.5990   21.6540 C   0  0  0  0  0  3  0  0  0  0  0  0
    1.2850   39.0020   22.7430 C   0  0  0  0  0  0  0  0  0  0  0  0
  6  5  2  0
  6  7  1  0
  5  4  1  0
  7  8  2  0
 22 21  1  0
  4  3  2  0
  8  3  1  0
  8  9  1  0
  3  2  1  0
  9 13  1  0
  9  1  1  0
 13 14  1  0
 12 11  2  0
  2  1  2  0
 23 21  1  0
 23 24  2  0
  1 11  1  0
 21 20  2  0
 11 10  1  0
 14 24  1  0
 14 15  2  0
 24 18  1  0
 20 19  1  0
 15 16  1  0
 18 19  2  0
 18 17  1  0
 16 17  2  0
M  RAD  8   2   2   4   2   5   2   6   2   7   2  13   3  15   2  16   2
M  CHG  1  10  -1
M  RAD  4  17   2  19   2  20   2  23   2
M  END
>  <_TriposChargeType>  (1) 
GASTEIGER

>  <SuCOS_score>  (1) 
0.3170873360158626

>  <Volume_score>  (1) 
0.41199867417964864

>  <Feature_score>  (1) 
0.2221759978520766

$$$$
