DOCK.F36.P5yjm/L1007_ligand.pdbt
     RDKit          3D

 31 35  0  0  0  0  0  0  0  0999 V2000
   -2.2390   39.2940   22.0420 C   0  0  0  0  0  3  0  0  0  0  0  0
   -2.4720   37.9940   21.4230 C   0  0  0  0  0  0  0  0  0  0  0  0
   -1.3310   37.2860   21.0030 C   0  0  0  0  0  3  0  0  0  0  0  0
   -1.3900   36.0560   20.4040 C   0  0  0  0  0  3  0  0  0  0  0  0
   -2.6210   35.4760   20.1980 C   0  0  0  0  0  0  0  0  0  0  0  0
   -2.6990   34.2250   19.5910 C   0  0  0  0  0  3  0  0  0  0  0  0
   -3.9280   33.6510   19.3880 C   0  0  0  0  0  3  0  0  0  0  0  0
   -5.0460   34.3420   19.7970 C   0  0  0  0  0  3  0  0  0  0  0  0
   -4.9760   35.5720   20.3950 C   0  0  0  0  0  3  0  0  0  0  0  0
   -3.7420   36.1720   20.6110 C   0  0  0  0  0  0  0  0  0  0  0  0
   -3.6790   37.4100   21.2140 C   0  0  0  0  0  3  0  0  0  0  0  0
   -5.2020   42.2870   23.6000 C   0  0  0  0  0  1  0  0  0  0  0  0
   -5.0610   41.3660   22.3780 C   0  0  2  0  0  0  0  0  0  0  0  0
   -4.7640   40.0130   22.7630 C   0  0  0  0  0  0  0  0  0  0  0  0
   -5.4070   39.1160   23.3430 O   0  0  0  0  0  0  0  0  0  0  0  0
   -3.4520   40.1530   22.2040 C   0  0  0  0  0  0  0  0  0  0  0  0
   -3.7220   41.3910   21.8520 C   0  0  0  0  0  0  0  0  0  0  0  0
   -2.9960   42.4010   21.2000 O   0  0  0  0  0  0  0  0  0  0  0  0
   -2.2010   42.7790   21.7030 H   0  0  0  0  0  0  0  0  0  0  0  0
   -6.1650   41.5750   21.4120 C   0  0  0  0  0  0  0  0  0  0  0  0
   -6.5850   40.4960   20.6680 C   0  0  0  0  0  3  0  0  0  0  0  0
   -7.6080   40.5970   19.7420 C   0  0  0  0  0  3  0  0  0  0  0  0
   -8.2380   41.8000   19.5400 C   0  0  0  0  0  3  0  0  0  0  0  0
   -7.8130   42.8790   20.2870 C   0  0  0  0  0  3  0  0  0  0  0  0
   -6.7890   42.7680   21.2110 C   0  0  0  0  0  3  0  0  0  0  0  0
   -1.4560   39.1250   23.2780 C   0  0  0  0  0  0  0  0  0  0  0  0
   -0.2320   39.7380   23.4370 C   0  0  0  0  0  3  0  0  0  0  0  0
    0.5350   39.5970   24.5630 C   0  0  0  0  0  3  0  0  0  0  0  0
    0.0760   38.8120   25.5900 C   0  0  0  0  0  3  0  0  0  0  0  0
   -1.1480   38.1920   25.4450 C   0  0  0  0  0  3  0  0  0  0  0  0
   -1.9270   38.3310   24.3080 C   0  0  0  0  0  3  0  0  0  0  0  0
  7  6  1  0
  7  8  2  0
 23 22  1  0
 23 24  2  0
  6  5  2  0
 22 21  2  0
  8  9  1  0
  5  4  1  0
  5 10  1  0
 24 25  1  0
  9 10  2  0
  4  3  2  0
 10 11  1  0
 21 20  1  0
  3  2  1  0
 18 19  1  0
 18 17  1  0
 25 20  2  0
 11  2  2  0
 20 13  1  0
  2  1  1  0
 17 16  2  0
 17 13  1  0
  1 16  1  0
  1 26  1  0
 16 14  1  0
 13 14  1  0
 13 12  1  1
 14 15  2  0
 26 27  2  0
 26 31  1  0
 27 28  1  0
 31 30  2  0
 28 29  2  0
 30 29  1  0
M  RAD  8   1   2   3   2   4   2   6   2   7   2   8   2   9   2  11   2
M  RAD  8  12   2  21   2  22   2  23   2  24   2  25   2  27   2  28   2
M  RAD  3  29   2  30   2  31   2
M  END
>  <_TriposChargeType>  (1) 
GASTEIGER

>  <SuCOS_score>  (1) 
0.24978506535828404

>  <Volume_score>  (1) 
0.45122085957352775

>  <Feature_score>  (1) 
0.04834927114304032

$$$$
