DOCK.F36.P5yjm/L1008_ligand.pdbt
     RDKit          3D

 32 36  0  0  0  0  0  0  0  0999 V2000
   -2.5880   39.3390   23.1780 C   0  0  0  0  0  3  0  0  0  0  0  0
    4.9320   39.4010   23.2010 C   0  0  0  0  0  1  0  0  0  0  0  0
    3.5740   39.7000   22.6490 C   0  0  0  0  0  0  0  0  0  0  0  0
    3.4840   40.3760   21.4530 C   0  0  0  0  0  3  0  0  0  0  0  0
    2.2140   40.6370   20.9690 C   0  0  0  0  0  3  0  0  0  0  0  0
    1.0870   40.2270   21.6750 C   0  0  0  0  0  0  0  0  0  0  0  0
   -0.5910   40.3660   21.4020 S   0  0  0  0  0  0  0  0  0  0  0  0
   -1.1720   39.5740   22.7920 C   0  0  0  0  0  0  0  0  0  0  0  0
   -0.0170   39.2170   23.4420 C   0  0  0  0  0  0  0  0  0  0  0  0
   -0.1340   38.4660   24.7680 C   0  0  0  0  0  1  0  0  0  0  0  0
    1.1490   39.5540   22.8660 C   0  0  0  0  0  0  0  0  0  0  0  0
    2.4550   39.3070   23.3230 C   0  0  0  0  0  3  0  0  0  0  0  0
   -3.5110   40.3950   22.6810 C   0  0  0  0  0  0  0  0  0  0  0  0
   -3.4560   41.4950   22.0000 C   0  0  0  0  0  0  0  0  0  0  0  0
   -2.3990   42.2000   21.4000 O   0  0  0  0  0  0  0  0  0  0  0  0
   -4.8770   41.7480   22.0730 C   0  0  1  0  0  0  0  0  0  0  0  0
   -5.6530   41.5960   20.7780 C   0  0  0  0  0  1  0  0  0  0  0  0
   -4.9350   40.5190   22.8360 C   0  0  0  0  0  0  0  0  0  0  0  0
   -5.8760   39.8520   23.3980 O   0  0  0  0  0  0  0  0  0  0  0  0
   -2.2610   42.0440   20.4100 H   0  0  0  0  0  0  0  0  0  0  0  0
   -5.2940   42.9140   22.8870 C   0  0  0  0  0  0  0  0  0  0  0  0
   -5.3990   42.8620   24.2550 C   0  0  0  0  0  3  0  0  0  0  0  0
   -5.7920   43.9560   25.0090 C   0  0  0  0  0  3  0  0  0  0  0  0
   -6.0870   45.1320   24.3810 C   0  0  0  0  0  3  0  0  0  0  0  0
   -5.9860   45.1990   23.0080 C   0  0  0  0  0  3  0  0  0  0  0  0
   -5.5920   44.0990   22.2560 C   0  0  0  0  0  3  0  0  0  0  0  0
   -3.0090   38.0540   22.5550 C   0  0  0  0  0  0  0  0  0  0  0  0
   -2.8020   37.7890   21.2180 C   0  0  0  0  0  3  0  0  0  0  0  0
   -3.2080   36.6000   20.7030 C   0  0  0  0  0  3  0  0  0  0  0  0
   -3.8150   35.6620   21.4750 C   0  0  0  0  0  3  0  0  0  0  0  0
   -4.0210   35.9370   22.8280 C   0  0  0  0  0  3  0  0  0  0  0  0
   -3.6230   37.1310   23.3830 C   0  0  0  0  0  3  0  0  0  0  0  0
 20 15  1  0
 29 28  2  0
 29 30  1  0
 16 17  1  6
  5  4  1  0
  5  6  2  0
 28 27  1  0
 15 14  1  0
  7  6  1  0
  7  8  1  0
  4  3  2  0
 30 31  2  0
  6 11  1  0
 14 16  1  0
 14 13  2  0
 16 18  1  0
 16 21  1  0
 26 21  1  0
 26 25  2  0
 27  1  1  0
 27 32  2  0
  3  2  1  0
  3 12  1  0
 13 18  1  0
 13  1  1  0
  8  1  1  0
  8  9  2  0
 31 32  1  0
 18 19  2  0
 11 12  2  0
 11  9  1  0
 21 22  2  0
 25 24  1  0
  9 10  1  0
 22 23  1  0
 24 23  2  0
M  RAD  8   1   2   2   2   4   2   5   2  10   2  12   2  17   2  22   2
M  RAD  8  23   2  24   2  25   2  26   2  28   2  29   2  30   2  31   2
M  RAD  1  32   2
M  END
>  <_TriposChargeType>  (1) 
GASTEIGER

>  <SuCOS_score>  (1) 
0.41424188026071584

>  <Volume_score>  (1) 
0.5319854159761352

>  <Feature_score>  (1) 
0.2964983445452965

$$$$
