DOCK.F36.P5yjm/L1009_ligand.pdbt
     RDKit          3D

 34 38  0  0  0  0  0  0  0  0999 V2000
   -3.0210   36.9350   21.8730 C   0  0  0  0  0  3  0  0  0  0  0  0
   -5.2550   34.9410   20.7410 C   0  0  0  0  0  1  0  0  0  0  0  0
   -3.8870   35.1880   20.1960 C   0  0  0  0  0  0  0  0  0  0  0  0
   -2.9200   36.0410   20.6820 C   0  0  0  0  0  0  0  0  0  0  0  0
   -1.8760   35.8940   19.8480 N   0  0  0  0  0  0  0  0  0  0  0  0
   -2.1320   35.0100   18.8830 C   0  0  0  0  0  0  0  0  0  0  0  0
   -1.4000   34.5140   17.7990 C   0  0  0  0  0  3  0  0  0  0  0  0
   -1.9910   33.5780   16.9760 C   0  0  0  0  0  3  0  0  0  0  0  0
   -3.2690   33.1080   17.1700 C   0  0  0  0  0  0  0  0  0  0  0  0
   -3.7990   32.1790   16.3190 F   0  0  0  0  0  0  0  0  0  0  0  0
   -3.9860   33.5990   18.2360 C   0  0  0  0  0  3  0  0  0  0  0  0
   -3.4110   34.5400   19.0780 C   0  0  0  0  0  0  0  0  0  0  0  0
   -0.9450   36.3940   19.9080 H   0  0  0  0  0  0  0  0  0  0  0  0
   -1.7100   37.2260   22.4900 C   0  0  0  0  0  0  0  0  0  0  0  0
   -0.5950   37.6730   21.9590 C   0  0  0  0  0  0  0  0  0  0  0  0
   -0.3680   38.0000   20.6000 O   0  0  0  0  0  0  0  0  0  0  0  0
    0.4550   37.8040   22.9900 C   0  0  0  0  0  3  0  0  0  0  0  0
   -0.1370   37.4260   24.1940 O   0  0  0  0  0  0  0  0  0  0  0  0
   -1.4400   37.0590   23.9360 C   0  0  0  0  0  0  0  0  0  0  0  0
   -2.2370   36.6510   24.8180 O   0  0  0  0  0  0  0  0  0  0  0  0
    0.4100   37.4930   20.1710 H   0  0  0  0  0  0  0  0  0  0  0  0
    0.9140   39.2430   23.1520 C   0  0  0  0  0  2  0  0  0  0  0  0
    2.3970   39.2950   23.0870 C   0  0  0  0  0  0  0  0  0  0  0  0
    3.1560   39.0010   24.1970 C   0  0  0  0  0  3  0  0  0  0  0  0
    4.5430   39.0420   24.1720 C   0  0  0  0  0  3  0  0  0  0  0  0
    5.1990   39.3920   22.9930 C   0  0  0  0  0  3  0  0  0  0  0  0
    4.4290   39.6820   21.8960 C   0  0  0  0  0  3  0  0  0  0  0  0
    3.0520   39.6400   21.9230 C   0  0  0  0  0  3  0  0  0  0  0  0
   -3.8030   38.1480   21.5790 C   0  0  0  0  0  0  0  0  0  0  0  0
   -3.2110   39.4060   21.4740 C   0  0  0  0  0  3  0  0  0  0  0  0
   -4.0000   40.5010   21.2010 C   0  0  0  0  0  3  0  0  0  0  0  0
   -5.3620   40.3920   21.0270 C   0  0  0  0  0  3  0  0  0  0  0  0
   -5.9630   39.1390   21.1290 C   0  0  0  0  0  3  0  0  0  0  0  0
   -5.1680   38.0690   21.4000 C   0  0  0  0  0  3  0  0  0  0  0  0
 10  9  1  0
  8  9  2  0
  8  7  1  0
  9 11  1  0
  7  6  2  0
 11 12  2  0
  6 12  1  0
  6  5  1  0
 12  3  1  0
  5 13  1  0
  5  4  1  0
 21 16  1  0
  3  4  2  0
  3  2  1  0
 16 15  1  0
  4  1  1  0
 32 33  2  0
 32 31  1  0
 33 34  1  0
 31 30  2  0
 34 29  2  0
 30 29  1  0
 29  1  1  0
  1 14  1  0
 27 28  2  0
 27 26  1  0
 28 23  1  0
 15 14  2  0
 15 17  1  0
 14 19  1  0
 17 22  1  0
 17 18  1  0
 26 25  2  0
 23 22  1  0
 23 24  2  0
 19 18  1  0
 19 20  2  0
 25 24  1  0
M  RAD  8   1   2   2   2   7   2   8   2  11   2  17   2  22   3  24   2
M  RAD  8  25   2  26   2  27   2  28   2  30   2  31   2  32   2  33   2
M  RAD  1  34   2
M  END
>  <_TriposChargeType>  (1) 
GASTEIGER

>  <SuCOS_score>  (1) 
0.2858264840975656

>  <Volume_score>  (1) 
0.47234231238221924

>  <Feature_score>  (1) 
0.09931065581291199

$$$$
