DOCK.F36.P5yjm/L1013_ligand.pdbt
     RDKit          3D

 27 30  0  0  0  0  0  0  0  0999 V2000
   -1.3960   37.4740   23.0680 N   0  0  0  0  0  4  0  0  0  0  0  0
   -1.7100   37.5210   21.7420 C   0  0  0  0  0  0  0  0  0  0  0  0
   -1.5740   36.2800   21.1610 C   0  0  0  0  0  0  0  0  0  0  0  0
   -1.1540   35.4570   22.2310 C   0  0  0  0  0  0  0  0  0  0  0  0
   -0.8740   34.1090   22.3030 C   0  0  0  0  0  3  0  0  0  0  0  0
   -0.5000   33.5230   23.4960 C   0  0  0  0  0  3  0  0  0  0  0  0
   -0.4030   34.2900   24.6290 C   0  0  0  0  0  3  0  0  0  0  0  0
   -0.6790   35.6330   24.5790 C   0  0  0  0  0  3  0  0  0  0  0  0
   -1.0610   36.2100   23.3530 C   0  0  0  0  0  0  0  0  0  0  0  0
   -2.1530   38.7670   21.1150 C   0  0  0  0  0  0  0  0  0  0  0  0
   -1.4000   39.2600   20.2000 O   0  0  0  0  0  1  0  0  0  0  0  0
   -3.3070   39.4510   21.4270 O   0  0  0  0  0  0  0  0  0  0  0  0
   -1.3930   38.5480   24.0560 C   0  0  0  0  0  2  0  0  0  0  0  0
   -0.0970   39.3170   24.0200 C   0  0  0  0  0  2  0  0  0  0  0  0
    2.0010   38.4010   24.3990 C   0  0  0  0  0  1  0  0  0  0  0  0
    0.8350   38.9260   24.9430 O   0  0  0  0  0  0  0  0  0  0  0  0
   -1.8570   35.8090   19.8000 C   0  0  0  0  0  2  0  0  0  0  0  0
   -2.9810   34.9980   19.4690 C   0  0  0  0  0  0  0  0  0  0  0  0
   -4.1170   34.9600   20.3060 C   0  0  0  0  0  3  0  0  0  0  0  0
   -5.2000   34.1710   20.0960 C   0  0  0  0  0  3  0  0  0  0  0  0
   -5.2440   33.3370   19.0170 C   0  0  0  0  0  3  0  0  0  0  0  0
   -4.1740   33.3200   18.1610 C   0  0  0  0  0  0  0  0  0  0  0  0
   -4.2000   32.4700   17.0630 C   0  0  0  0  0  3  0  0  0  0  0  0
   -3.1460   32.4030   16.1680 C   0  0  0  0  0  3  0  0  0  0  0  0
   -2.0720   33.2000   16.3980 C   0  0  0  0  0  3  0  0  0  0  0  0
   -2.0600   34.0340   17.4850 C   0  0  0  0  0  3  0  0  0  0  0  0
   -3.0720   34.1440   18.4020 C   0  0  0  0  0  0  0  0  0  0  0  0
 24 25  2  0
 24 23  1  0
 25 26  1  0
 23 22  2  0
 26 27  2  0
 22 27  1  0
 22 21  1  0
 27 18  1  0
 21 20  2  0
 18 17  1  0
 18 19  2  0
 17  3  1  0
 20 19  1  0
 11 10  1  0
 10 12  2  0
 10  2  1  0
  3  2  2  0
  3  4  1  0
  2  1  1  0
  4  5  2  0
  4  9  1  0
  5  6  1  0
  1  9  1  0
  1 13  1  0
  9  8  2  0
  6  7  2  0
 14 13  1  0
 14 16  1  0
 15 16  1  0
  8  7  1  0
M  RAD  8   5   2   6   2   7   2   8   2  13   3  14   3  15   2  17   3
M  CHG  2   1   1  11  -1
M  RAD  7  19   2  20   2  21   2  23   2  24   2  25   2  26   2
M  END
>  <_TriposChargeType>  (1) 
GASTEIGER

>  <SuCOS_score>  (1) 
0.17903908419332093

>  <Volume_score>  (1) 
0.29857032029258557

>  <Feature_score>  (1) 
0.05950784809405629

$$$$
