DOCK.F36.P5yjm/L1010_ligand.pdbt
     RDKit          3D

 24 27  0  0  0  0  0  0  0  0999 V2000
   -1.8450   37.1730   21.8700 C   0  0  0  0  0  0  0  0  0  0  0  0
   -1.3490   36.8970   23.1280 C   0  0  0  0  0  3  0  0  0  0  0  0
   -0.9970   35.5690   23.1300 C   0  0  0  0  0  0  0  0  0  0  0  0
   -0.4470   34.7460   24.1220 C   0  0  0  0  0  3  0  0  0  0  0  0
   -0.1750   33.4200   23.8890 C   0  0  0  0  0  3  0  0  0  0  0  0
   -0.4560   32.9130   22.6550 C   0  0  0  0  0  3  0  0  0  0  0  0
   -0.9980   33.7190   21.6760 C   0  0  0  0  0  3  0  0  0  0  0  0
   -1.2800   35.0650   21.8980 C   0  0  0  0  0  0  0  0  0  0  0  0
   -1.7920   36.0460   21.1420 N   0  0  0  0  0  0  0  0  0  0  0  0
   -3.2700   39.0000   22.1050 O   0  0  0  0  0  1  0  0  0  0  0  0
   -2.3290   38.4910   21.4620 C   0  0  0  0  0  0  0  0  0  0  0  0
   -1.7990   39.2000   20.4000 O   0  0  0  0  0  0  0  0  0  0  0  0
   -2.2080   35.8960   19.7880 C   0  0  0  0  0  2  0  0  0  0  0  0
   -3.3920   35.0570   19.6000 C   0  0  0  0  0  0  0  0  0  0  0  0
   -4.4990   35.1160   20.4110 C   0  0  0  0  0  3  0  0  0  0  0  0
   -5.5530   34.2760   20.1350 C   0  0  0  0  0  3  0  0  0  0  0  0
   -5.5420   33.3830   19.0850 C   0  0  0  0  0  3  0  0  0  0  0  0
   -4.4230   33.3170   18.2560 C   0  0  0  0  0  0  0  0  0  0  0  0
   -4.3910   32.4320   17.2000 C   0  0  0  0  0  3  0  0  0  0  0  0
   -3.2700   32.3920   16.4010 C   0  0  0  0  0  3  0  0  0  0  0  0
   -2.2040   33.2090   16.6400 C   0  0  0  0  0  0  0  0  0  0  0  0
   -1.0770   33.2000   15.8730 F   0  0  0  0  0  0  0  0  0  0  0  0
   -2.2720   34.0760   17.7000 C   0  0  0  0  0  3  0  0  0  0  0  0
   -3.3830   34.1630   18.5480 C   0  0  0  0  0  0  0  0  0  0  0  0
 22 21  1  0
 20 21  2  0
 20 19  1  0
 21 23  1  0
 19 18  2  0
 23 24  2  0
 18 24  1  0
 18 17  1  0
 24 14  1  0
 17 16  2  0
 14 13  1  0
 14 15  2  0
 13  9  1  0
 16 15  1  0
 12 11  2  0
  9  1  1  0
  9  8  1  0
 11  1  1  0
 11 10  1  0
  7  8  2  0
  7  6  1  0
  1  2  2  0
  8  3  1  0
  6  5  2  0
  2  3  1  0
  3  4  2  0
  5  4  1  0
M  RAD  8   2   2   4   2   5   2   6   2   7   2  13   3  15   2  16   2
M  CHG  1  10  -1
M  RAD  4  17   2  19   2  20   2  23   2
M  END
>  <_TriposChargeType>  (1) 
GASTEIGER

>  <SuCOS_score>  (1) 
0.10911644083493041

>  <Volume_score>  (1) 
0.21486232444985076

>  <Feature_score>  (1) 
0.0033705572200100737

$$$$
