DOCK.F36.P3n7o/L1006_ligand.pdbt
     RDKit          3D

 42 46  0  0  0  0  0  0  0  0999 V2000
   -1.3950   38.3760   22.2400 C   0  0  0  0  0  3  0  0  0  0  0  0
   -2.1510   35.8900   22.0140 C   0  0  0  0  0  0  0  0  0  0  0  0
   -1.7060   37.1390   21.5570 C   0  0  0  0  0  0  0  0  0  0  0  0
   -1.7570   37.0500   20.1950 N   0  0  0  0  0  0  0  0  0  0  0  0
   -2.1960   35.8720   19.7910 C   0  0  0  0  0  0  0  0  0  0  0  0
   -2.4090   35.3910   18.4940 C   0  0  0  0  0  3  0  0  0  0  0  0
   -2.8960   34.1280   18.3010 C   0  0  0  0  0  0  0  0  0  0  0  0
   -3.1330   33.5910   16.9200 C   0  0  0  0  0  1  0  0  0  0  0  0
   -3.1580   33.3800   19.4200 C   0  0  0  0  0  3  0  0  0  0  0  0
   -2.9470   33.8530   20.6960 C   0  0  0  0  0  3  0  0  0  0  0  0
   -2.4550   35.1220   20.9130 C   0  0  0  0  0  0  0  0  0  0  0  0
   -1.4790   37.8230   19.5170 H   0  0  0  0  0  0  0  0  0  0  0  0
   -2.1570   35.4880   23.3970 C   0  0  0  0  0  2  0  0  0  0  0  0
   -3.4650   35.2350   24.0960 C   0  0  1  0  0  0  0  0  0  0  0  0
   -4.6410   35.6900   23.2020 C   0  0  0  0  0  1  0  0  0  0  0  0
   -3.7200   33.8240   24.4890 C   0  0  0  0  0  1  0  0  0  0  0  0
   -2.7880   36.4500   27.7020 C   0  0  0  0  0  1  0  0  0  0  0  0
   -2.7460   35.6820   26.4120 C   0  0  0  0  0  0  0  0  0  0  0  0
   -1.9660   34.7030   26.2990 O   0  0  0  0  0  0  0  0  0  0  0  0
   -3.5950   36.0710   25.3180 N   0  0  0  0  0  0  0  0  0  0  0  0
   -4.2350   36.8680   25.3920 H   0  0  0  0  0  0  0  0  0  0  0  0
   -2.6720   39.0610   22.6720 C   0  0  0  0  0  0  0  0  0  0  0  0
   -3.6060   39.7650   22.1180 C   0  0  0  0  0  0  0  0  0  0  0  0
   -3.8190   40.2040   20.8000 O   0  0  0  0  0  0  0  0  0  0  0  0
   -4.3810   39.9560   23.3480 C   0  0  1  0  0  0  0  0  0  0  0  0
   -5.7230   39.2920   23.4110 C   0  0  0  0  0  1  0  0  0  0  0  0
   -3.3200   39.1610   23.9640 C   0  0  0  0  0  0  0  0  0  0  0  0
   -3.0690   38.7380   25.1240 O   0  0  0  0  0  0  0  0  0  0  0  0
   -4.5270   39.6950   20.2740 H   0  0  0  0  0  0  0  0  0  0  0  0
   -4.3880   41.4090   23.7050 C   0  0  0  0  0  0  0  0  0  0  0  0
   -4.4000   42.4030   22.7410 C   0  0  0  0  0  3  0  0  0  0  0  0
   -4.4080   43.7450   23.0950 C   0  0  0  0  0  3  0  0  0  0  0  0
   -4.4050   44.1230   24.4200 C   0  0  0  0  0  0  0  0  0  0  0  0
   -4.4130   45.5770   24.8110 C   0  0  0  0  0  1  0  0  0  0  0  0
   -4.3940   43.1690   25.3900 C   0  0  0  0  0  3  0  0  0  0  0  0
   -4.3850   41.8410   25.0160 C   0  0  0  0  0  3  0  0  0  0  0  0
   -0.4020   38.4490   23.2910 C   0  0  0  0  0  0  0  0  0  0  0  0
    0.6450   39.3160   23.1760 C   0  0  0  0  0  3  0  0  0  0  0  0
    1.6230   39.4120   24.1430 C   0  0  0  0  0  3  0  0  0  0  0  0
    1.5870   38.6240   25.2830 C   0  0  0  0  0  3  0  0  0  0  0  0
    0.5450   37.7460   25.4190 C   0  0  0  0  0  3  0  0  0  0  0  0
   -0.4260   37.6600   24.4480 C   0  0  0  0  0  3  0  0  0  0  0  0
  8  7  1  0
  7  6  2  0
  7  9  1  0
  6  5  1  0
  9 10  2  0
 12  4  1  0
  5  4  1  0
  5 11  2  0
  4  3  1  0
 29 24  1  0
 10 11  1  0
 24 23  1  0
 11  2  1  0
  3  2  2  0
  3  1  1  0
  2 13  1  0
 23 22  2  0
 23 25  1  0
  1 22  1  0
  1 37  1  0
 22 27  1  0
 31 32  2  0
 31 30  1  0
 32 33  1  0
 38 37  2  0
 38 39  1  0
 14 15  1  6
 37 42  1  0
 25 26  1  6
 25 30  1  0
 25 27  1  0
 13 14  1  0
 30 36  2  0
 27 28  2  0
 14 16  1  0
 14 20  1  0
 39 40  2  0
 33 34  1  0
 33 35  2  0
 42 41  2  0
 36 35  1  0
 40 41  1  0
 20 21  1  0
 20 18  1  0
 19 18  2  0
 18 17  1  0
M  RAD  8   1   2   6   2   8   2   9   2  10   2  13   3  15   2  16   2
M  RAD  8  17   2  26   2  31   2  32   2  34   2  35   2  36   2  38   2
M  RAD  4  39   2  40   2  41   2  42   2
M  END
>  <_TriposChargeType>  (1) 
GASTEIGER

>  <SuCOS_score>  (1) 
0.2586802745668325

>  <Volume_score>  (1) 
0.4379973474801061

>  <Feature_score>  (1) 
0.07936320165355887

$$$$
