DOCK.F36.P3n7o/L1003_ligand.pdbt
     RDKit          3D

 32 35  0  0  0  0  0  0  0  0999 V2000
   -2.4000   36.6680   23.4160 N   0  0  0  0  0  0  0  0  0  0  0  0
   -2.4380   36.0430   24.2790 H   0  0  0  0  0  0  0  0  0  0  0  0
   -2.5780   36.0430   22.1830 C   0  0  0  0  0  0  0  0  0  0  0  0
   -3.4210   36.5390   21.2000 C   0  0  0  0  0  3  0  0  0  0  0  0
   -3.5880   35.8950   19.9850 C   0  0  0  0  0  3  0  0  0  0  0  0
   -2.9150   34.7270   19.7090 C   0  0  0  0  0  0  0  0  0  0  0  0
   -2.0760   34.2210   20.6710 C   0  0  0  0  0  3  0  0  0  0  0  0
   -1.9130   34.8730   21.8900 C   0  0  0  0  0  0  0  0  0  0  0  0
   -3.0500   34.0050   18.4520 C   0  0  0  0  0  0  0  0  0  0  0  0
   -4.2390   33.3940   18.0900 C   0  0  0  0  0  3  0  0  0  0  0  0
   -4.3990   32.7030   16.9080 C   0  0  0  0  0  3  0  0  0  0  0  0
   -3.3410   32.6180   16.0600 N   0  0  0  0  0  0  0  0  0  0  0  0
   -2.1800   33.2000   16.3880 C   0  0  0  0  0  3  0  0  0  0  0  0
   -1.9990   33.8960   17.5640 C   0  0  0  0  0  3  0  0  0  0  0  0
   -0.9960   34.2400   22.8520 C   0  0  2  0  0  0  0  0  0  0  0  0
   -0.0530   35.0880   23.3620 F   0  0  0  0  0  0  0  0  0  0  0  0
   -0.3990   33.1320   22.2310 F   0  0  0  0  0  0  0  0  0  0  0  0
   -1.6830   33.7150   23.9270 F   0  0  0  0  0  0  0  0  0  0  0  0
   -2.1310   38.3280   23.7200 S   0  0  1  0  0  6  0  0  0  0  0  0
   -3.1700   39.1790   23.0260 O   0  0  0  0  0  0  0  0  0  0  0  0
   -2.3170   38.6340   25.2030 O   0  0  0  0  0  0  0  0  0  0  0  0
    0.7900   38.1680   25.2730 C   0  0  0  0  0  1  0  0  0  0  0  0
    0.6830   38.8030   23.8950 C   0  0  0  0  0  0  0  0  0  0  0  0
   -0.5230   38.8480   23.2770 C   0  0  0  0  0  0  0  0  0  0  0  0
   -0.1630   39.6200   21.7850 S   0  0  0  0  0  0  0  0  0  0  0  0
    1.5080   39.8590   21.9990 C   0  0  0  0  0  0  0  0  0  0  0  0
    2.4910   40.4370   21.1940 C   0  0  0  0  0  3  0  0  0  0  0  0
    3.8000   40.5030   21.6200 C   0  0  0  0  0  3  0  0  0  0  0  0
    4.0420   39.9670   22.8680 C   0  0  0  0  0  0  0  0  0  0  0  0
    5.3380   40.0280   23.2990 F   0  0  0  0  0  0  0  0  0  0  0  0
    3.0860   39.4000   23.6630 C   0  0  0  0  0  3  0  0  0  0  0  0
    1.7470   39.3300   23.2310 C   0  0  0  0  0  0  0  0  0  0  0  0
 12 13  2  0
 12 11  1  0
 13 14  1  0
 11 10  2  0
 14  9  2  0
 10  9  1  0
  9  6  1  0
  6  5  1  0
  6  7  2  0
  5  4  2  0
  7  8  1  0
 27 28  2  0
 27 26  1  0
  4  3  1  0
 28 29  1  0
 25 26  1  0
 25 24  1  0
  8  3  2  0
  8 15  1  0
 26 32  2  0
  3  1  1  0
 15 17  1  6
 15 16  1  0
 15 18  1  0
 29 30  1  0
 29 31  2  0
 20 19  2  0
 32 31  1  0
 32 23  1  0
 24 19  1  0
 24 23  2  0
 19  1  1  1
  1  2  1  0
 19 21  2  0
 23 22  1  0
M  RAD  8   4   2   5   2   7   2  10   2  11   2  13   2  14   2  22   2
M  RAD  3  27   2  28   2  31   2
M  END
>  <_TriposChargeType>  (1) 
GASTEIGER

>  <SuCOS_score>  (1) 
0.2877754270700185

>  <Volume_score>  (1) 
0.39900332225913626

>  <Feature_score>  (1) 
0.17654753188090078

$$$$
