DOCK.F36.P3n7o/L1004_ligand.pdbt
     RDKit          3D

 33 36  0  0  0  0  0  0  0  0999 V2000
   -2.2450   37.5440   23.1180 C   0  0  0  0  0  3  0  0  0  0  0  0
   -3.6950   35.7720   21.9350 C   0  0  0  0  0  0  0  0  0  0  0  0
   -2.6150   36.6360   22.0520 C   0  0  0  0  0  0  0  0  0  0  0  0
   -1.9080   36.5450   20.8890 N   0  0  0  0  0  0  0  0  0  0  0  0
   -2.4690   35.6790   20.0360 C   0  0  0  0  0  0  0  0  0  0  0  0
   -2.1340   35.2530   18.7650 C   0  0  0  0  0  3  0  0  0  0  0  0
   -2.9020   34.3230   18.0940 C   0  0  0  0  0  3  0  0  0  0  0  0
   -4.0210   33.8220   18.7220 C   0  0  0  0  0  0  0  0  0  0  0  0
   -4.7940   32.9120   18.0810 F   0  0  0  0  0  0  0  0  0  0  0  0
   -4.3420   34.2650   20.0040 C   0  0  0  0  0  3  0  0  0  0  0  0
   -3.6010   35.1900   20.7000 C   0  0  0  0  0  0  0  0  0  0  0  0
   -1.0160   37.0710   20.6370 H   0  0  0  0  0  0  0  0  0  0  0  0
   -6.1120   35.6820   22.6470 C   0  0  0  0  0  1  0  0  0  0  0  0
   -4.6530   35.5500   22.9990 C   0  0  0  0  0  3  0  0  0  0  0  0
   -4.5250   34.0830   23.5050 C   0  0  0  0  0  1  0  0  0  0  0  0
   -1.2110   38.5740   22.6960 C   0  0  0  0  0  0  0  0  0  0  0  0
   -0.1310   38.9720   23.3360 C   0  0  0  0  0  0  0  0  0  0  0  0
    0.2380   38.4560   24.5910 O   0  0  0  0  0  0  0  0  0  0  0  0
    0.6180   40.0010   22.5780 C   0  0  0  0  0  3  0  0  0  0  0  0
   -0.1550   40.2180   21.4000 N   0  0  0  0  0  0  0  0  0  0  0  0
   -1.2650   39.3440   21.4580 C   0  0  0  0  0  0  0  0  0  0  0  0
   -2.2010   39.2000   20.6000 O   0  0  0  0  0  0  0  0  0  0  0  0
    1.1570   38.0360   24.7120 H   0  0  0  0  0  0  0  0  0  0  0  0
    0.0730   40.8980   20.6470 H   0  0  0  0  0  0  0  0  0  0  0  0
    2.0370   39.5790   22.2860 C   0  0  0  0  0  3  0  0  0  0  0  0
    2.6330   40.4190   21.1720 C   0  0  0  0  0  1  0  0  0  0  0  0
    2.8620   39.8000   23.5260 C   0  0  0  0  0  1  0  0  0  0  0  0
   -3.3060   38.1320   23.9340 C   0  0  0  0  0  0  0  0  0  0  0  0
   -4.2870   38.9660   23.4290 C   0  0  0  0  0  3  0  0  0  0  0  0
   -5.2880   39.4840   24.2280 C   0  0  0  0  0  3  0  0  0  0  0  0
   -5.3530   39.1920   25.5720 C   0  0  0  0  0  3  0  0  0  0  0  0
   -4.3830   38.3640   26.0840 C   0  0  0  0  0  3  0  0  0  0  0  0
   -3.3960   37.8560   25.2810 C   0  0  0  0  0  3  0  0  0  0  0  0
  9  8  1  0
  7  8  2  0
  7  6  1  0
  8 10  1  0
  6  5  2  0
 10 11  2  0
  5 11  1  0
  5  4  1  0
 22 21  2  0
 12  4  1  0
 24 20  1  0
 11  2  1  0
  4  3  1  0
 26 25  1  0
 20 21  1  0
 20 19  1  0
 21 16  1  0
  2  3  2  0
  2 14  1  0
  3  1  1  0
 25 19  1  0
 25 27  1  0
 19 17  1  0
 13 14  1  0
 16  1  1  0
 16 17  2  0
 14 15  1  0
  1 28  1  0
 17 18  1  0
 29 28  2  0
 29 30  1  0
 28 33  1  0
 30 31  2  0
 18 23  1  0
 33 32  2  0
 31 32  1  0
M  RAD  8   1   2   6   2   7   2  10   2  13   2  14   2  15   2  19   2
M  RAD  8  25   2  26   2  27   2  29   2  30   2  31   2  32   2  33   2
M  END
>  <_TriposChargeType>  (1) 
GASTEIGER

>  <SuCOS_score>  (1) 
0.24584886791211646

>  <Volume_score>  (1) 
0.3772687029659141

>  <Feature_score>  (1) 
0.11442903285831882

$$$$
