DOCK.F36.P3n7o/L1001_ligand.pdbt
     RDKit          3D

 32 35  0  0  0  0  0  0  0  0999 V2000
   -1.7810   37.3660   22.9400 C   0  0  0  0  0  0  0  0  0  0  0  0
   -2.7570   37.4330   21.9350 C   0  0  0  0  0  0  0  0  0  0  0  0
   -3.1010   36.1940   21.5700 N   0  0  0  0  0  4  0  0  0  0  0  0
   -2.3720   35.3440   22.3110 C   0  0  0  0  0  0  0  0  0  0  0  0
   -2.3480   33.9360   22.3230 C   0  0  0  0  0  3  0  0  0  0  0  0
   -1.5270   33.2490   23.1630 C   0  0  0  0  0  3  0  0  0  0  0  0
   -0.6950   33.9230   24.0280 C   0  0  0  0  0  0  0  0  0  0  0  0
    0.1370   33.2820   24.8790 F   0  0  0  0  0  0  0  0  0  0  0  0
   -0.7300   35.3100   24.0040 C   0  0  0  0  0  3  0  0  0  0  0  0
   -1.5570   36.0390   23.1570 C   0  0  0  0  0  0  0  0  0  0  0  0
   -3.2760   38.6860   21.4110 C   0  0  0  0  0  0  0  0  0  0  0  0
   -2.5350   39.4660   20.8000 O   0  0  0  0  0  1  0  0  0  0  0  0
   -4.6000   39.0000   21.6010 O   0  0  0  0  0  0  0  0  0  0  0  0
   -1.1800   38.5250   23.5730 C   0  0  0  0  0  2  0  0  0  0  0  0
    1.0350   38.9140   22.6220 C   0  0  0  0  0  0  0  0  0  0  0  0
    0.5420   39.1420   21.4830 O   0  0  0  0  0  0  0  0  0  0  0  0
    0.2290   38.5750   23.7430 N   0  0  0  0  0  0  0  0  0  0  0  0
    0.9020   38.3320   25.0140 C   0  0  0  0  0  1  0  0  0  0  0  0
    2.4010   39.0010   22.7680 O   0  0  0  0  0  0  0  0  0  0  0  0
    3.6160   40.4000   21.2850 C   0  0  0  0  0  1  0  0  0  0  0  0
    3.1430   40.1990   22.7050 C   0  0  0  0  0  2  0  0  0  0  0  0
   -4.0550   35.7860   20.5830 C   0  0  0  0  0  2  0  0  0  0  0  0
   -3.4340   35.1170   19.4180 C   0  0  0  0  0  0  0  0  0  0  0  0
   -2.2000   35.4550   18.9010 C   0  0  0  0  0  3  0  0  0  0  0  0
   -1.6540   34.7960   17.8010 C   0  0  0  0  0  3  0  0  0  0  0  0
   -2.4000   33.7730   17.2300 C   0  0  0  0  0  3  0  0  0  0  0  0
   -3.6390   33.4030   17.7130 C   0  0  0  0  0  0  0  0  0  0  0  0
   -4.3630   32.3870   17.1350 C   0  0  0  0  0  3  0  0  0  0  0  0
   -5.5910   32.0470   17.6440 C   0  0  0  0  0  3  0  0  0  0  0  0
   -6.1390   32.6890   18.7290 C   0  0  0  0  0  3  0  0  0  0  0  0
   -5.3860   33.7100   19.2920 C   0  0  0  0  0  3  0  0  0  0  0  0
   -4.1470   34.0950   18.8240 C   0  0  0  0  0  0  0  0  0  0  0  0
 28 29  2  0
 28 27  1  0
 26 27  2  0
 26 25  1  0
 29 30  1  0
 27 32  1  0
 25 24  2  0
 30 31  2  0
 32 31  1  0
 32 23  2  0
 24 23  1  0
 23 22  1  0
 22  3  1  0
 12 11  1  0
 20 21  1  0
 11 13  2  0
 11  2  1  0
 16 15  2  0
  3  2  1  0
  3  4  1  0
  2  1  2  0
  4  5  2  0
  4 10  1  0
  5  6  1  0
 15 19  1  0
 15 17  1  0
 21 19  1  0
  1 10  1  0
  1 14  1  0
 10  9  2  0
  6  7  2  0
 14 17  1  0
 17 18  1  0
  9  7  1  0
  7  8  1  0
M  RAD  8   5   2   6   2   9   2  14   3  18   2  20   2  21   3  22   3
M  CHG  2   3   1  12  -1
M  RAD  7  24   2  25   2  26   2  28   2  29   2  30   2  31   2
M  END
>  <_TriposChargeType>  (1) 
GASTEIGER

>  <SuCOS_score>  (1) 
0.20056491021402406

>  <Volume_score>  (1) 
0.3864894795127354

>  <Feature_score>  (1) 
0.014640340915312735

$$$$
