DOCK.F36.P3n7o/L1013_ligand.pdbt
     RDKit          3D

 27 30  0  0  0  0  0  0  0  0999 V2000
   -1.4840   36.5560   22.8130 N   0  0  0  0  0  4  0  0  0  0  0  0
   -1.9460   36.8880   21.5730 C   0  0  0  0  0  0  0  0  0  0  0  0
   -2.2210   35.7600   20.8340 C   0  0  0  0  0  0  0  0  0  0  0  0
   -1.8960   34.7000   21.7110 C   0  0  0  0  0  0  0  0  0  0  0  0
   -1.9740   33.3310   21.5720 C   0  0  0  0  0  3  0  0  0  0  0  0
   -1.6130   32.4890   22.6060 C   0  0  0  0  0  3  0  0  0  0  0  0
   -1.1680   33.0190   23.7900 C   0  0  0  0  0  3  0  0  0  0  0  0
   -1.0840   34.3790   23.9480 C   0  0  0  0  0  3  0  0  0  0  0  0
   -1.4590   35.2200   22.8830 C   0  0  0  0  0  0  0  0  0  0  0  0
   -2.1240   38.2880   21.1850 C   0  0  0  0  0  0  0  0  0  0  0  0
   -3.3280   38.6930   21.0000 O   0  0  0  0  0  1  0  0  0  0  0  0
   -1.1100   39.2000   21.0000 O   0  0  0  0  0  0  0  0  0  0  0  0
   -1.0670   37.4250   23.9070 C   0  0  0  0  0  2  0  0  0  0  0  0
    0.3970   37.7730   23.7990 C   0  0  0  0  0  2  0  0  0  0  0  0
    2.1240   39.2000   24.4000 C   0  0  0  0  0  1  0  0  0  0  0  0
    0.8110   38.7970   24.6070 O   0  0  0  0  0  0  0  0  0  0  0  0
   -2.7960   35.5940   19.4930 C   0  0  0  0  0  2  0  0  0  0  0  0
   -3.8210   34.6520   19.1910 C   0  0  0  0  0  0  0  0  0  0  0  0
   -4.9150   34.4680   20.0640 C   0  0  0  0  0  3  0  0  0  0  0  0
   -5.8980   33.5510   19.8820 C   0  0  0  0  0  3  0  0  0  0  0  0
   -5.8740   32.7260   18.7970 C   0  0  0  0  0  3  0  0  0  0  0  0
   -4.8410   32.8460   17.9060 C   0  0  0  0  0  0  0  0  0  0  0  0
   -4.7980   32.0060   16.8010 C   0  0  0  0  0  3  0  0  0  0  0  0
   -3.7750   32.0760   15.8710 C   0  0  0  0  0  3  0  0  0  0  0  0
   -2.8010   33.0000   16.0740 C   0  0  0  0  0  3  0  0  0  0  0  0
   -2.8550   33.8210   17.1680 C   0  0  0  0  0  3  0  0  0  0  0  0
   -3.8420   33.8000   18.1190 C   0  0  0  0  0  0  0  0  0  0  0  0
 24 25  2  0
 24 23  1  0
 25 26  1  0
 23 22  2  0
 26 27  2  0
 22 27  1  0
 22 21  1  0
 27 18  1  0
 21 20  2  0
 18 17  1  0
 18 19  2  0
 17  3  1  0
 20 19  1  0
  3  2  2  0
  3  4  1  0
 11 10  1  0
 12 10  2  0
 10  2  1  0
  5  4  2  0
  5  6  1  0
  2  1  1  0
  4  9  1  0
  6  7  2  0
  1  9  1  0
  1 13  1  0
  9  8  2  0
  7  8  1  0
 14 13  1  0
 14 16  1  0
 15 16  1  0
M  RAD  8   5   2   6   2   7   2   8   2  13   3  14   3  15   2  17   3
M  CHG  2   1   1  11  -1
M  RAD  7  19   2  20   2  21   2  23   2  24   2  25   2  26   2
M  END
>  <_TriposChargeType>  (1) 
GASTEIGER

>  <SuCOS_score>  (1) 
0.15397216462242921

>  <Volume_score>  (1) 
0.25951748561310317

>  <Feature_score>  (1) 
0.04842684363175524

$$$$
