DOCK.F36.P3n7o/L1010_ligand.pdbt
     RDKit          3D

 24 27  0  0  0  0  0  0  0  0999 V2000
   -2.6150   37.6850   22.1450 C   0  0  0  0  0  0  0  0  0  0  0  0
   -2.2400   37.6100   23.4700 C   0  0  0  0  0  3  0  0  0  0  0  0
   -1.6800   36.3680   23.6520 C   0  0  0  0  0  0  0  0  0  0  0  0
   -1.1300   35.7440   24.7800 C   0  0  0  0  0  3  0  0  0  0  0  0
   -0.6200   34.4700   24.7210 C   0  0  0  0  0  3  0  0  0  0  0  0
   -0.6610   33.8160   23.5250 C   0  0  0  0  0  3  0  0  0  0  0  0
   -1.2020   34.4260   22.4130 C   0  0  0  0  0  3  0  0  0  0  0  0
   -1.7240   35.7180   22.4580 C   0  0  0  0  0  0  0  0  0  0  0  0
   -2.2920   36.5240   21.5520 N   0  0  0  0  0  0  0  0  0  0  0  0
   -2.5700   39.5860   20.8000 O   0  0  0  0  0  1  0  0  0  0  0  0
   -3.2530   38.8570   21.5480 C   0  0  0  0  0  0  0  0  0  0  0  0
   -4.5740   39.1990   21.7710 O   0  0  0  0  0  0  0  0  0  0  0  0
   -2.5080   36.1870   20.1840 C   0  0  0  0  0  2  0  0  0  0  0  0
   -3.6810   35.3480   19.9380 C   0  0  0  0  0  0  0  0  0  0  0  0
   -4.8110   35.3800   20.7200 C   0  0  0  0  0  3  0  0  0  0  0  0
   -5.8530   34.5430   20.3900 C   0  0  0  0  0  3  0  0  0  0  0  0
   -5.8080   33.6820   19.3150 C   0  0  0  0  0  3  0  0  0  0  0  0
   -4.6650   33.6440   18.5170 C   0  0  0  0  0  0  0  0  0  0  0  0
   -4.6000   32.7900   17.4370 C   0  0  0  0  0  3  0  0  0  0  0  0
   -3.4560   32.7780   16.6690 C   0  0  0  0  0  3  0  0  0  0  0  0
   -2.4020   33.5920   16.9620 C   0  0  0  0  0  0  0  0  0  0  0  0
   -1.2530   33.6110   16.2270 F   0  0  0  0  0  0  0  0  0  0  0  0
   -2.5040   34.4280   18.0430 C   0  0  0  0  0  3  0  0  0  0  0  0
   -3.6390   34.4860   18.8620 C   0  0  0  0  0  0  0  0  0  0  0  0
 22 21  1  0
 20 21  2  0
 20 19  1  0
 21 23  1  0
 19 18  2  0
 23 24  2  0
 18 24  1  0
 18 17  1  0
 24 14  1  0
 17 16  2  0
 14 13  1  0
 14 15  2  0
 13  9  1  0
 16 15  1  0
 10 11  1  0
 11 12  2  0
 11  1  1  0
  9  1  1  0
  9  8  1  0
  1  2  2  0
  7  8  2  0
  7  6  1  0
  8  3  1  0
  2  3  1  0
  6  5  2  0
  3  4  2  0
  5  4  1  0
M  RAD  8   2   2   4   2   5   2   6   2   7   2  13   3  15   2  16   2
M  CHG  1  10  -1
M  RAD  4  17   2  19   2  20   2  23   2
M  END
>  <_TriposChargeType>  (1) 
GASTEIGER

>  <SuCOS_score>  (1) 
0.11838783715482823

>  <Volume_score>  (1) 
0.2240865437686279

>  <Feature_score>  (1) 
0.012689130541028552

$$$$
