DOCK.F36.P3n7o/L1015_ligand.pdbt
     RDKit          3D

 32 35  0  0  0  0  0  0  0  0999 V2000
   -1.9950   36.2920   23.4780 N   0  0  0  0  0  0  0  0  0  0  0  0
   -1.9150   35.6300   24.2800 H   0  0  0  0  0  0  0  0  0  0  0  0
   -2.2140   35.7720   22.1910 C   0  0  0  0  0  0  0  0  0  0  0  0
   -2.5980   36.5000   21.0820 C   0  0  0  0  0  3  0  0  0  0  0  0
   -2.7890   35.9570   19.8260 C   0  0  0  0  0  3  0  0  0  0  0  0
   -2.5920   34.6160   19.6400 C   0  0  0  0  0  0  0  0  0  0  0  0
   -2.2080   33.8600   20.7280 C   0  0  0  0  0  3  0  0  0  0  0  0
   -2.0240   34.4000   21.9540 C   0  0  0  0  0  0  0  0  0  0  0  0
   -2.7730   33.9630   18.3400 C   0  0  0  0  0  0  0  0  0  0  0  0
   -1.7350   33.8250   17.4380 C   0  0  0  0  0  3  0  0  0  0  0  0
   -1.9470   33.2000   16.2160 C   0  0  0  0  0  3  0  0  0  0  0  0
   -3.1600   32.7360   15.9170 N   0  0  0  0  0  0  0  0  0  0  0  0
   -4.2010   32.8480   16.7640 C   0  0  0  0  0  3  0  0  0  0  0  0
   -3.9990   33.4620   17.9710 C   0  0  0  0  0  3  0  0  0  0  0  0
   -1.5370   33.4000   23.2970 S   0  0  1  0  0  6  0  0  0  0  0  0
    0.2010   33.6340   23.5670 C   0  0  0  0  0  1  0  0  0  0  0  0
   -2.2890   33.8130   24.5300 O   0  0  0  0  0  0  0  0  0  0  0  0
   -1.8660   31.9530   23.0550 O   0  0  0  0  0  0  0  0  0  0  0  0
   -1.8570   37.9610   23.7570 S   0  0  2  0  0  6  0  0  0  0  0  0
   -2.0860   38.2200   25.2400 O   0  0  0  0  0  0  0  0  0  0  0  0
   -2.9540   38.7070   23.0440 O   0  0  0  0  0  0  0  0  0  0  0  0
    0.9060   38.1150   25.4010 C   0  0  0  0  0  1  0  0  0  0  0  0
    0.8790   38.6630   23.9810 C   0  0  0  0  0  0  0  0  0  0  0  0
   -0.2960   38.5950   23.2910 C   0  0  0  0  0  0  0  0  0  0  0  0
    0.0800   39.2900   21.7930 S   0  0  0  0  0  0  0  0  0  0  0  0
    1.7340   39.6600   22.0680 C   0  0  0  0  0  0  0  0  0  0  0  0
    2.7270   40.2540   21.2820 C   0  0  0  0  0  3  0  0  0  0  0  0
    4.0020   40.4290   21.7750 C   0  0  0  0  0  3  0  0  0  0  0  0
    4.2010   39.9820   23.0630 C   0  0  0  0  0  0  0  0  0  0  0  0
    5.4560   40.1460   23.5700 F   0  0  0  0  0  0  0  0  0  0  0  0
    3.2450   39.4000   23.8450 C   0  0  0  0  0  3  0  0  0  0  0  0
    1.9340   39.2160   23.3460 C   0  0  0  0  0  0  0  0  0  0  0  0
 12 11  1  0
 12 13  2  0
 11 10  2  0
 13 14  1  0
 10  9  1  0
 14  9  2  0
  9  6  1  0
  6  5  1  0
  6  7  2  0
  5  4  2  0
  7  8  1  0
  4  3  1  0
 27 28  2  0
 27 26  1  0
 28 29  1  0
 25 26  1  0
 25 24  1  0
  8  3  2  0
  8 15  1  0
 26 32  2  0
  3  1  1  0
 21 19  2  0
 18 15  2  0
 29 30  1  0
 29 31  2  0
 24 19  1  0
 24 23  2  0
 15 16  1  1
 15 17  2  0
 32 31  1  0
 32 23  1  0
 19  1  1  1
  1  2  1  0
 19 20  2  0
 23 22  1  0
M  RAD  8   4   2   5   2   7   2  10   2  11   2  13   2  14   2  16   2
M  RAD  4  22   2  27   2  28   2  31   2
M  END
>  <_TriposChargeType>  (1) 
GASTEIGER

>  <SuCOS_score>  (1) 
0.2787083762450128

>  <Volume_score>  (1) 
0.39353129484490557

>  <Feature_score>  (1) 
0.16388545764512008

$$$$
