DOCK.F10.P4k2y/L1001_ligand.pdbt
     RDKit          3D

 32 35  0  0  0  0  0  0  0  0999 V2000
   -4.2860   38.9880   21.6540 C   0  0  0  0  0  0  0  0  0  0  0  0
   -3.2010   39.8780   21.6480 C   0  0  0  0  0  0  0  0  0  0  0  0
   -2.0760   39.2010   21.4000 N   0  0  0  0  0  4  0  0  0  0  0  0
   -2.4130   37.9100   21.2490 C   0  0  0  0  0  0  0  0  0  0  0  0
   -1.6120   36.7850   20.9750 C   0  0  0  0  0  3  0  0  0  0  0  0
   -2.1540   35.5420   20.8550 C   0  0  0  0  0  3  0  0  0  0  0  0
   -3.5100   35.3570   21.0020 C   0  0  0  0  0  0  0  0  0  0  0  0
   -4.0910   34.1410   20.8920 F   0  0  0  0  0  0  0  0  0  0  0  0
   -4.2860   36.4740   21.2720 C   0  0  0  0  0  3  0  0  0  0  0  0
   -3.7620   37.7560   21.4000 C   0  0  0  0  0  0  0  0  0  0  0  0
   -3.3410   41.3060   21.8850 C   0  0  0  0  0  0  0  0  0  0  0  0
   -3.9410   41.7220   22.8830 O   0  0  0  0  0  1  0  0  0  0  0  0
   -2.8000   42.1940   20.9860 O   0  0  0  0  0  0  0  0  0  0  0  0
   -5.6620   39.3810   21.8890 C   0  0  0  0  0  2  0  0  0  0  0  0
   -6.6790   40.5920   20.0280 C   0  0  0  0  0  0  0  0  0  0  0  0
   -6.0070   41.6270   20.2920 O   0  0  0  0  0  0  0  0  0  0  0  0
   -6.5770   39.4050   20.8030 N   0  0  0  0  0  0  0  0  0  0  0  0
   -7.3990   38.2650   20.4110 C   0  0  0  0  0  1  0  0  0  0  0  0
   -7.5350   40.6290   18.9510 O   0  0  0  0  0  0  0  0  0  0  0  0
   -9.8000   40.8000   18.2610 C   0  0  0  0  0  1  0  0  0  0  0  0
   -8.6000   41.5420   18.8000 C   0  0  0  0  0  2  0  0  0  0  0  0
   -0.7370   39.6990   21.3020 C   0  0  0  0  0  2  0  0  0  0  0  0
    0.0960   39.3580   22.4780 C   0  0  0  0  0  0  0  0  0  0  0  0
   -0.4130   38.9100   23.6800 C   0  0  0  0  0  3  0  0  0  0  0  0
    0.4110   38.6000   24.7610 C   0  0  0  0  0  3  0  0  0  0  0  0
    1.7800   38.7590   24.5910 C   0  0  0  0  0  3  0  0  0  0  0  0
    2.3320   39.2050   23.4070 C   0  0  0  0  0  0  0  0  0  0  0  0
    3.6900   39.3550   23.2560 C   0  0  0  0  0  3  0  0  0  0  0  0
    4.2010   39.8010   22.0640 C   0  0  0  0  0  3  0  0  0  0  0  0
    3.4000   40.1080   20.9910 C   0  0  0  0  0  3  0  0  0  0  0  0
    2.0320   39.9470   21.1710 C   0  0  0  0  0  3  0  0  0  0  0  0
    1.4620   39.5030   22.3460 C   0  0  0  0  0  0  0  0  0  0  0  0
 20 21  1  0
 21 19  1  0
 19 15  1  0
 15 16  2  0
 15 17  1  0
 18 17  1  0
 17 14  1  0
  6  5  2  0
  6  7  1  0
  8  7  1  0
  5  4  1  0
 13 11  2  0
 30 31  1  0
 30 29  2  0
  7  9  2  0
 31 32  2  0
  4 10  2  0
  4  3  1  0
  9 10  1  0
 22  3  1  0
 22 23  1  0
 10  1  1  0
  3  2  1  0
  2  1  2  0
  2 11  1  0
  1 14  1  0
 11 12  1  0
 29 28  1  0
 32 23  1  0
 32 27  1  0
 23 24  2  0
 28 27  2  0
 27 26  1  0
 24 25  1  0
 26 25  2  0
M  RAD  8   5   2   6   2   9   2  14   3  18   2  20   2  21   3  22   3
M  CHG  2   3   1  12  -1
M  RAD  7  24   2  25   2  26   2  28   2  29   2  30   2  31   2
M  END
>  <_TriposChargeType>  (1) 
GASTEIGER

>  <SuCOS_score>  (1) 
0.3417908230316391

>  <Volume_score>  (1) 
0.5096674400618716

>  <Feature_score>  (1) 
0.17391420600140656

$$$$
