DOCK.F10.P4k2y/L1008_ligand.pdbt
     RDKit          3D

 32 36  0  0  0  0  0  0  0  0999 V2000
   -2.0170   38.6810   22.8590 C   0  0  0  0  0  3  0  0  0  0  0  0
    5.4000   39.4000   23.8730 C   0  0  0  0  0  1  0  0  0  0  0  0
    4.1200   39.4960   23.1060 C   0  0  0  0  0  0  0  0  0  0  0  0
    4.1600   39.9790   21.8170 C   0  0  0  0  0  3  0  0  0  0  0  0
    2.9590   40.0550   21.1330 C   0  0  0  0  0  3  0  0  0  0  0  0
    1.7710   39.6560   21.7380 C   0  0  0  0  0  0  0  0  0  0  0  0
    0.1450   39.6070   21.2260 S   0  0  0  0  0  0  0  0  0  0  0  0
   -0.5780   38.9800   22.6330 C   0  0  0  0  0  0  0  0  0  0  0  0
    0.4910   38.8230   23.4790 C   0  0  0  0  0  0  0  0  0  0  0  0
    0.2330   38.2670   24.8790 C   0  0  0  0  0  1  0  0  0  0  0  0
    1.7040   39.1730   23.0170 C   0  0  0  0  0  0  0  0  0  0  0  0
    2.9430   39.1100   23.6780 C   0  0  0  0  0  3  0  0  0  0  0  0
   -2.9190   39.7620   22.3790 C   0  0  0  0  0  0  0  0  0  0  0  0
   -2.8320   40.9270   21.8190 C   0  0  0  0  0  0  0  0  0  0  0  0
   -1.7440   41.7110   21.4010 O   0  0  0  0  0  0  0  0  0  0  0  0
   -4.2610   41.1420   21.7740 C   0  0  1  0  0  0  0  0  0  0  0  0
   -4.9020   41.1050   20.4000 C   0  0  0  0  0  1  0  0  0  0  0  0
   -4.3550   39.8400   22.4030 C   0  0  0  0  0  0  0  0  0  0  0  0
   -5.3250   39.1000   22.7990 O   0  0  0  0  0  0  0  0  0  0  0  0
   -1.5060   41.6600   20.4190 H   0  0  0  0  0  0  0  0  0  0  0  0
   -4.7910   42.2100   22.6540 C   0  0  0  0  0  0  0  0  0  0  0  0
   -4.9010   42.0610   24.0150 C   0  0  0  0  0  3  0  0  0  0  0  0
   -5.4000   43.0640   24.8310 C   0  0  0  0  0  3  0  0  0  0  0  0
   -5.7990   44.2450   24.2730 C   0  0  0  0  0  3  0  0  0  0  0  0
   -5.6930   44.4080   22.9080 C   0  0  0  0  0  3  0  0  0  0  0  0
   -5.1930   43.4000   22.0940 C   0  0  0  0  0  3  0  0  0  0  0  0
   -2.3420   37.4550   22.0800 C   0  0  0  0  0  0  0  0  0  0  0  0
   -1.8700   37.2570   20.8000 C   0  0  0  0  0  3  0  0  0  0  0  0
   -2.2000   36.1200   20.1360 C   0  0  0  0  0  3  0  0  0  0  0  0
   -2.9860   35.1690   20.7020 C   0  0  0  0  0  3  0  0  0  0  0  0
   -3.4610   35.3760   22.0000 C   0  0  0  0  0  3  0  0  0  0  0  0
   -3.1470   36.5160   22.7010 C   0  0  0  0  0  3  0  0  0  0  0  0
 29 30  1  0
 29 28  2  0
 16 17  1  6
 20 15  1  0
 30 31  2  0
 28 27  1  0
  5  6  2  0
  5  4  1  0
  7  6  1  0
  7  8  1  0
 15 14  1  0
  6 11  1  0
 16 14  1  0
 16 18  1  0
 16 21  1  0
  4  3  2  0
 14 13  2  0
 31 32  1  0
 27 32  2  0
 27  1  1  0
 26 21  1  0
 26 25  2  0
 13 18  1  0
 13  1  1  0
 18 19  2  0
  8  1  1  0
  8  9  2  0
 21 22  2  0
 25 24  1  0
 11  9  1  0
 11 12  2  0
  3 12  1  0
  3  2  1  0
  9 10  1  0
 22 23  1  0
 24 23  2  0
M  RAD  8   1   2   2   2   4   2   5   2  10   2  12   2  17   2  22   2
M  RAD  8  23   2  24   2  25   2  26   2  28   2  29   2  30   2  31   2
M  RAD  1  32   2
M  END
>  <_TriposChargeType>  (1) 
GASTEIGER

>  <SuCOS_score>  (1) 
0.4311927242126483

>  <Volume_score>  (1) 
0.561595403822782

>  <Feature_score>  (1) 
0.30079004460251474

$$$$
