DOCK.F10.P4k2y/L1010_ligand.pdbt
     RDKit          3D

 24 27  0  0  0  0  0  0  0  0999 V2000
   -3.0870   39.7350   21.5550 C   0  0  0  0  0  0  0  0  0  0  0  0
   -4.1750   38.8970   21.4240 C   0  0  0  0  0  3  0  0  0  0  0  0
   -3.6760   37.6350   21.2040 C   0  0  0  0  0  0  0  0  0  0  0  0
   -4.3060   36.4000   21.0000 C   0  0  0  0  0  3  0  0  0  0  0  0
   -3.5860   35.2490   20.7970 C   0  0  0  0  0  3  0  0  0  0  0  0
   -2.2240   35.3330   20.7970 C   0  0  0  0  0  3  0  0  0  0  0  0
   -1.6010   36.5470   20.9970 C   0  0  0  0  0  3  0  0  0  0  0  0
   -2.3180   37.7230   21.2040 C   0  0  0  0  0  0  0  0  0  0  0  0
   -1.9720   38.9990   21.4180 N   0  0  0  0  0  0  0  0  0  0  0  0
   -3.8620   41.5540   22.7850 O   0  0  0  0  0  1  0  0  0  0  0  0
   -3.1960   41.1720   21.8010 C   0  0  0  0  0  0  0  0  0  0  0  0
   -2.6000   42.1280   21.0000 O   0  0  0  0  0  0  0  0  0  0  0  0
   -0.6320   39.4780   21.4860 C   0  0  0  0  0  2  0  0  0  0  0  0
    0.0790   39.1390   22.7190 C   0  0  0  0  0  0  0  0  0  0  0  0
   -0.5500   38.6900   23.8560 C   0  0  0  0  0  3  0  0  0  0  0  0
    0.2240   38.4030   24.9560 C   0  0  0  0  0  3  0  0  0  0  0  0
    1.5960   38.5460   24.9630 C   0  0  0  0  0  3  0  0  0  0  0  0
    2.2410   39.0000   23.8140 C   0  0  0  0  0  0  0  0  0  0  0  0
    3.6110   39.1500   23.7990 C   0  0  0  0  0  3  0  0  0  0  0  0
    4.2170   39.6000   22.6470 C   0  0  0  0  0  3  0  0  0  0  0  0
    3.4860   39.8960   21.5350 C   0  0  0  0  0  0  0  0  0  0  0  0
    4.0470   40.3440   20.3760 F   0  0  0  0  0  0  0  0  0  0  0  0
    2.1260   39.7340   21.5870 C   0  0  0  0  0  3  0  0  0  0  0  0
    1.4510   39.2810   22.7280 C   0  0  0  0  0  0  0  0  0  0  0  0
 22 21  1  0
  5  6  2  0
  5  4  1  0
  6  7  1  0
  7  8  2  0
  4  3  2  0
 12 11  2  0
  3  8  1  0
  3  2  1  0
  8  9  1  0
  9 13  1  0
  9  1  1  0
  2  1  2  0
 13 14  1  0
 21 23  1  0
 21 20  2  0
  1 11  1  0
 23 24  2  0
 11 10  1  0
 20 19  1  0
 14 24  1  0
 14 15  2  0
 24 18  1  0
 19 18  2  0
 18 17  1  0
 15 16  1  0
 16 17  2  0
M  RAD  8   2   2   4   2   5   2   6   2   7   2  13   3  15   2  16   2
M  CHG  1  10  -1
M  RAD  4  17   2  19   2  20   2  23   2
M  END
>  <_TriposChargeType>  (1) 
GASTEIGER

>  <SuCOS_score>  (1) 
0.3338879556686789

>  <Volume_score>  (1) 
0.428239973483593

>  <Feature_score>  (1) 
0.23953593785376484

$$$$
