DOCK.F10.P4k2y/L1012_ligand.pdbt
     RDKit          3D

 30 32  0  0  0  0  0  0  0  0999 V2000
   -4.2990   39.5900   22.8910 N   0  0  0  0  0  0  0  0  0  0  0  0
   -4.7500   39.2340   22.0120 H   0  0  0  0  0  0  0  0  0  0  0  0
   -5.2590   43.4530   24.2180 C   0  0  0  0  0  0  0  0  0  0  0  0
   -5.2010   42.4240   25.1320 C   0  0  0  0  0  3  0  0  0  0  0  0
   -4.8800   41.1470   24.6830 C   0  0  0  0  0  3  0  0  0  0  0  0
   -4.6190   40.8780   23.3640 C   0  0  0  0  0  0  0  0  0  0  0  0
   -4.6830   41.9200   22.4670 C   0  0  0  0  0  0  0  0  0  0  0  0
   -4.9980   43.2030   22.8690 C   0  0  0  0  0  3  0  0  0  0  0  0
   -4.3600   41.6200   20.7760 S   0  0  2  0  0  6  0  0  0  0  0  0
   -5.8670   41.1960   19.9230 C   0  0  0  0  0  1  0  0  0  0  0  0
   -3.4320   40.4310   20.6000 O   0  0  0  0  0  0  0  0  0  0  0  0
   -3.7990   42.8320   20.1010 O   0  0  0  0  0  0  0  0  0  0  0  0
   -5.5930   44.8040   24.6520 C   0  0  0  0  0  0  0  0  0  0  0  0
   -4.6990   45.6680   24.8230 O   0  0  0  0  0  0  0  0  0  0  0  0
   -7.7930   45.3940   23.8010 C   0  0  0  0  0  1  0  0  0  0  0  0
   -6.9060   45.1480   24.8810 O   0  0  0  0  0  0  0  0  0  0  0  0
   -3.1960   38.6020   23.7200 S   0  0  2  0  0  6  0  0  0  0  0  0
   -3.4160   37.1540   23.3790 O   0  0  0  0  0  0  0  0  0  0  0  0
   -3.4500   38.7200   25.2040 O   0  0  0  0  0  0  0  0  0  0  0  0
   -1.5170   38.9440   23.3530 C   0  0  0  0  0  0  0  0  0  0  0  0
   -0.9110   39.8070   22.0210 S   0  0  0  0  0  0  0  0  0  0  0  0
    0.7570   39.7140   22.3580 C   0  0  0  0  0  0  0  0  0  0  0  0
    1.9020   40.1950   21.7070 C   0  0  0  0  0  3  0  0  0  0  0  0
    3.1630   39.9560   22.2360 C   0  0  0  0  0  3  0  0  0  0  0  0
    3.1870   39.2400   23.4020 C   0  0  0  0  0  0  0  0  0  0  0  0
    4.4280   38.9980   23.9330 F   0  0  0  0  0  0  0  0  0  0  0  0
    2.0880   38.7620   24.0530 C   0  0  0  0  0  3  0  0  0  0  0  0
    0.7980   39.0000   23.5220 C   0  0  0  0  0  0  0  0  0  0  0  0
   -0.3860   38.5980   24.0400 C   0  0  0  0  0  0  0  0  0  0  0  0
   -0.5530   37.7930   25.3270 C   0  0  0  0  0  1  0  0  0  0  0  0
  9 10  1  6
 12  9  2  0
 11  9  2  0
  9  7  1  0
 23 24  1  0
 23 22  2  0
  2  1  1  0
 21 22  1  0
 21 20  1  0
 24 25  2  0
 22 28  1  0
  7  8  1  0
  7  6  2  0
  8  3  2  0
  1  6  1  0
 17  1  1  6
 20 17  1  0
 20 29  2  0
  6  5  1  0
 18 17  2  0
 25 26  1  0
 25 27  1  0
 28 29  1  0
 28 27  2  0
 17 19  2  0
 15 16  1  0
 29 30  1  0
  3 13  1  0
  3  4  1  0
 13 14  2  0
 13 16  1  0
  5  4  2  0
M  RAD  8   4   2   5   2   8   2  10   2  15   2  23   2  24   2  27   2
M  RAD  1  30   2
M  END
>  <_TriposChargeType>  (1) 
GASTEIGER

>  <SuCOS_score>  (1) 
0.31655502930433344

>  <Volume_score>  (1) 
0.4496740691636283

>  <Feature_score>  (1) 
0.18343598944503864

$$$$
