DOCK.F10.P4k2y/L1017_ligand.pdbt
     RDKit          3D

 31 34  0  0  0  0  0  0  0  0999 V2000
   -4.2890   39.1160   21.4240 C   0  0  0  0  0  0  0  0  0  0  0  0
   -3.2160   39.9520   21.6210 C   0  0  0  0  0  0  0  0  0  0  0  0
   -2.0610   39.3000   21.5740 N   0  0  0  0  0  4  0  0  0  0  0  0
   -2.3360   38.0150   21.3490 C   0  0  0  0  0  0  0  0  0  0  0  0
   -1.5750   36.8570   21.2120 C   0  0  0  0  0  3  0  0  0  0  0  0
   -2.0710   35.6070   20.9870 C   0  0  0  0  0  3  0  0  0  0  0  0
   -3.4600   35.4590   20.8880 C   0  0  0  0  0  0  0  0  0  0  0  0
   -3.9900   34.2460   20.6910 F   0  0  0  0  0  0  0  0  0  0  0  0
   -4.2520   36.5860   21.0110 C   0  0  0  0  0  3  0  0  0  0  0  0
   -3.7330   37.8430   21.2370 C   0  0  0  0  0  0  0  0  0  0  0  0
   -3.4200   41.4310   21.7960 C   0  0  0  0  0  0  0  0  0  0  0  0
   -2.8690   42.2000   20.9830 O   0  0  0  0  0  1  0  0  0  0  0  0
   -4.1580   42.0010   22.8000 O   0  0  0  0  0  0  0  0  0  0  0  0
   -5.6940   39.3450   21.7120 C   0  0  0  0  0  2  0  0  0  0  0  0
   -6.6780   39.2700   20.6950 N   0  0  0  0  0  0  0  0  0  0  0  0
   -7.5850   38.8740   20.8170 H   0  0  0  0  0  0  0  0  0  0  0  0
   -8.1880   41.0140   19.0000 C   0  0  0  0  0  1  0  0  0  0  0  0
   -6.7600   40.8920   20.0370 S   0  0  2  0  0  6  0  0  0  0  0  0
   -5.5330   41.2860   19.3600 O   0  0  0  0  0  0  0  0  0  0  0  0
   -6.9990   41.8500   21.2330 O   0  0  0  0  0  0  0  0  0  0  0  0
   -0.7460   39.8880   21.5950 C   0  0  0  0  0  2  0  0  0  0  0  0
    0.0920   39.4110   22.6980 C   0  0  0  0  0  0  0  0  0  0  0  0
   -0.3950   38.9200   23.8560 C   0  0  0  0  0  3  0  0  0  0  0  0
    0.4240   38.5140   24.8780 C   0  0  0  0  0  3  0  0  0  0  0  0
    1.7980   38.5990   24.7520 C   0  0  0  0  0  3  0  0  0  0  0  0
    2.3050   39.1150   23.5460 C   0  0  0  0  0  0  0  0  0  0  0  0
    3.6730   39.2000   23.4010 C   0  0  0  0  0  3  0  0  0  0  0  0
    4.1980   39.6910   22.2310 C   0  0  0  0  0  3  0  0  0  0  0  0
    3.3960   40.0970   21.1990 C   0  0  0  0  0  3  0  0  0  0  0  0
    2.0580   39.9930   21.3710 C   0  0  0  0  0  3  0  0  0  0  0  0
    1.4570   39.5020   22.5590 C   0  0  0  0  0  0  0  0  0  0  0  0
 18 17  1  6
 19 18  2  0
 18 15  1  0
 18 20  2  0
  8  7  1  0
 15 16  1  0
 15 14  1  0
  7  6  2  0
  7  9  1  0
 12 11  1  0
  6  5  1  0
  9 10  2  0
 29 30  1  0
 29 28  2  0
  5  4  2  0
 10  4  1  0
 10  1  1  0
  4  3  1  0
 30 31  2  0
  1  2  2  0
  1 14  1  0
  3 21  1  0
  3  2  1  0
 21 22  1  0
  2 11  1  0
 11 13  2  0
 28 27  1  0
 31 22  1  0
 31 26  1  0
 22 23  2  0
 27 26  2  0
 26 25  1  0
 23 24  1  0
 25 24  2  0
M  RAD  8   5   2   6   2   9   2  14   3  17   2  21   3  23   2  24   2
M  CHG  2   3   1  12  -1
M  RAD  5  25   2  27   2  28   2  29   2  30   2
M  END
>  <_TriposChargeType>  (1) 
GASTEIGER

>  <SuCOS_score>  (1) 
0.35701443383365794

>  <Volume_score>  (1) 
0.5262401944536516

>  <Feature_score>  (1) 
0.18778867321366435

$$$$
