DOCK.F10.P4k2y/L1016_ligand.pdbt
     RDKit          3D

 29 32  0  0  0  0  0  0  0  0999 V2000
   -4.7160   39.2470   21.7890 C   0  0  0  0  0  0  0  0  0  0  0  0
   -3.5180   39.9760   21.7060 C   0  0  0  0  0  0  0  0  0  0  0  0
   -2.5140   39.1570   21.4690 N   0  0  0  0  0  4  0  0  0  0  0  0
   -3.0730   37.8570   21.4000 C   0  0  0  0  0  0  0  0  0  0  0  0
   -2.5240   36.6270   21.1790 C   0  0  0  0  0  3  0  0  0  0  0  0
   -3.2720   35.4850   21.1490 C   0  0  0  0  0  3  0  0  0  0  0  0
   -4.6340   35.5720   21.3500 C   0  0  0  0  0  3  0  0  0  0  0  0
   -5.2320   36.7830   21.5760 C   0  0  0  0  0  3  0  0  0  0  0  0
   -4.4220   37.9280   21.5970 C   0  0  0  0  0  0  0  0  0  0  0  0
   -3.4680   41.4240   21.8610 C   0  0  0  0  0  0  0  0  0  0  0  0
   -3.9990   42.0380   22.8070 O   0  0  0  0  0  1  0  0  0  0  0  0
   -2.7990   42.2000   20.9290 O   0  0  0  0  0  0  0  0  0  0  0  0
   -6.0730   39.7750   22.0480 C   0  0  0  0  0  2  0  0  0  0  0  0
   -7.9740   41.2000   19.0000 C   0  0  0  0  0  1  0  0  0  0  0  0
   -7.2150   41.1230   20.2250 N   0  0  0  0  0  0  0  0  0  0  0  0
   -6.8000   42.3220   20.8920 C   0  0  0  0  0  1  0  0  0  0  0  0
   -6.8580   39.8720   20.7840 C   0  0  0  0  0  0  0  0  0  0  0  0
   -7.1960   38.7970   20.2190 O   0  0  0  0  0  0  0  0  0  0  0  0
   -1.1330   39.2810   21.2090 C   0  0  0  0  0  2  0  0  0  0  0  0
   -0.1790   39.0560   22.3610 C   0  0  0  0  0  0  0  0  0  0  0  0
   -0.7020   38.6990   23.5770 C   0  0  0  0  0  3  0  0  0  0  0  0
    0.6550   38.6920   24.6030 S   0  0  0  0  0  0  0  0  0  0  0  0
    1.8590   39.1330   23.4860 C   0  0  0  0  0  0  0  0  0  0  0  0
    3.2490   39.2890   23.5860 C   0  0  0  0  0  3  0  0  0  0  0  0
    4.0040   39.6000   22.4820 C   0  0  0  0  0  3  0  0  0  0  0  0
    3.3170   39.7470   21.3070 C   0  0  0  0  0  0  0  0  0  0  0  0
    4.0440   40.0580   20.2000 F   0  0  0  0  0  0  0  0  0  0  0  0
    1.9660   39.6010   21.1950 C   0  0  0  0  0  3  0  0  0  0  0  0
    1.1620   39.2820   22.3160 C   0  0  0  0  0  0  0  0  0  0  0  0
 14 15  1  0
 27 26  1  0
 18 17  2  0
 15 17  1  0
 15 16  1  0
 17 13  1  0
 12 10  2  0
  6  5  2  0
  6  7  1  0
  5  4  1  0
 28 26  1  0
 28 29  2  0
 19  3  1  0
 19 20  1  0
 26 25  2  0
  7  8  2  0
  4  3  1  0
  4  9  2  0
  3  2  1  0
  8  9  1  0
  9  1  1  0
  2  1  2  0
  2 10  1  0
  1 13  1  0
 10 11  1  0
 29 20  1  0
 29 23  1  0
 20 21  2  0
 25 24  1  0
 23 24  2  0
 23 22  1  0
 21 22  1  0
M  RAD  8   5   2   6   2   7   2   8   2  13   3  14   2  16   2  19   3
M  CHG  2   3   1  11  -1
M  RAD  4  21   2  24   2  25   2  28   2
M  END
>  <_TriposChargeType>  (1) 
GASTEIGER

>  <SuCOS_score>  (1) 
0.33901684235732266

>  <Volume_score>  (1) 
0.5082311346812507

>  <Feature_score>  (1) 
0.16980255003339456

$$$$
