DOCK.F40.P5yjm/L1005_ligand.pdbt
     RDKit          3D

 31 34  0  0  0  0  0  0  0  0999 V2000
   -4.2680   38.7400   21.5750 C   0  0  0  0  0  0  0  0  0  0  0  0
   -3.1780   39.6320   21.6710 C   0  0  0  0  0  0  0  0  0  0  0  0
   -2.0560   39.0170   21.3220 N   0  0  0  0  0  4  0  0  0  0  0  0
   -2.3760   37.7050   20.9940 C   0  0  0  0  0  0  0  0  0  0  0  0
   -1.5140   36.7010   20.6070 C   0  0  0  0  0  3  0  0  0  0  0  0
   -2.0670   35.4360   20.3640 C   0  0  0  0  0  3  0  0  0  0  0  0
   -3.4190   35.2440   20.5150 C   0  0  0  0  0  0  0  0  0  0  0  0
   -3.9800   34.0080   20.2770 F   0  0  0  0  0  0  0  0  0  0  0  0
   -4.2460   36.2830   20.9050 C   0  0  0  0  0  3  0  0  0  0  0  0
   -3.7380   37.5470   21.1530 C   0  0  0  0  0  0  0  0  0  0  0  0
   -3.3800   41.0060   22.1320 C   0  0  0  0  0  0  0  0  0  0  0  0
   -2.7990   42.0000   21.5740 O   0  0  0  0  0  1  0  0  0  0  0  0
   -4.1950   41.3610   23.1820 O   0  0  0  0  0  0  0  0  0  0  0  0
   -5.6530   39.0890   21.9060 C   0  0  0  0  0  2  0  0  0  0  0  0
   -7.3670   40.2300   20.4560 C   0  0  0  0  0  0  0  0  0  0  0  0
   -7.8960   39.1060   20.1970 O   0  0  0  0  0  0  0  0  0  0  0  0
   -6.2350   40.2370   21.3140 N   0  0  0  0  0  0  0  0  0  0  0  0
   -5.8320   41.2150   21.4990 H   0  0  0  0  0  0  0  0  0  0  0  0
   -8.7950   41.3900   18.8280 C   0  0  0  0  0  1  0  0  0  0  0  0
   -7.8920   41.3980   19.9090 O   0  0  0  0  0  0  0  0  0  0  0  0
   -0.6940   39.5210   21.3120 C   0  0  0  0  0  2  0  0  0  0  0  0
   -0.0330   39.2940   22.5820 C   0  0  0  0  0  0  0  0  0  0  0  0
   -0.7630   38.9510   23.7100 C   0  0  0  0  0  3  0  0  0  0  0  0
   -0.2170   38.6140   24.9280 C   0  0  0  0  0  3  0  0  0  0  0  0
    1.1600   38.6270   25.0070 C   0  0  0  0  0  3  0  0  0  0  0  0
    1.9270   38.9590   23.9370 C   0  0  0  0  0  0  0  0  0  0  0  0
    3.2840   39.0010   24.1000 C   0  0  0  0  0  3  0  0  0  0  0  0
    4.1180   39.3820   23.0550 C   0  0  0  0  0  3  0  0  0  0  0  0
    3.5290   39.7200   21.8410 C   0  0  0  0  0  3  0  0  0  0  0  0
    2.1620   39.6790   21.6690 C   0  0  0  0  0  3  0  0  0  0  0  0
    1.3420   39.3000   22.7010 C   0  0  0  0  0  0  0  0  0  0  0  0
 19 20  1  0
 20 15  1  0
 16 15  2  0
  8  7  1  0
  6  7  2  0
  6  5  1  0
 15 17  1  0
  7  9  1  0
  5  4  2  0
  9 10  2  0
  4 10  1  0
  4  3  1  0
 10  1  1  0
 21  3  1  0
 21 22  1  0
 17 18  1  0
 17 14  1  0
  3  2  1  0
 12 11  1  0
  1  2  2  0
  1 14  1  0
 30 29  1  0
 30 31  2  0
  2 11  1  0
 29 28  2  0
 11 13  2  0
 22 31  1  0
 22 23  2  0
 31 26  1  0
 28 27  1  0
 23 24  1  0
 26 27  2  0
 26 25  1  0
 24 25  2  0
M  RAD  8   5   2   6   2   9   2  14   3  19   2  21   3  23   2  24   2
M  CHG  2   3   1  12  -1
M  RAD  5  25   2  27   2  28   2  29   2  30   2
M  END
>  <_TriposChargeType>  (1) 
GASTEIGER

>  <SuCOS_score>  (1) 
0.3547469349217565

>  <Volume_score>  (1) 
0.5159650867307479

>  <Feature_score>  (1) 
0.19352878311276508

$$$$
