DOCK.F40.P5yjm/L1014_ligand.pdbt
     RDKit          3D

 24 27  0  0  0  0  0  0  0  0999 V2000
   -0.8960   39.6150   23.4120 C   0  0  0  0  0  2  0  0  0  0  0  0
    0.7910   38.3630   24.8870 C   0  0  0  0  0  1  0  0  0  0  0  0
    1.8340   38.9820   24.0930 C   0  0  0  0  0  0  0  0  0  0  0  0
    3.1970   38.8000   24.4000 C   0  0  0  0  0  3  0  0  0  0  0  0
    4.2170   39.2770   23.6280 C   0  0  0  0  0  3  0  0  0  0  0  0
    3.9090   39.9680   22.4940 C   0  0  0  0  0  3  0  0  0  0  0  0
    2.5840   40.1770   22.1440 C   0  0  0  0  0  0  0  0  0  0  0  0
    2.3110   40.8300   20.9730 C   0  0  0  0  0  3  0  0  0  0  0  0
    1.0170   41.0000   20.5970 C   0  0  0  0  0  3  0  0  0  0  0  0
    0.0190   40.5360   21.3690 C   0  0  0  0  0  3  0  0  0  0  0  0
    0.2220   39.8500   22.6040 C   0  0  0  0  0  0  0  0  0  0  0  0
    1.5370   39.6890   22.9430 C   0  0  0  0  0  0  0  0  0  0  0  0
   -1.9960   39.0840   22.5210 N   0  0  0  0  0  0  0  0  0  0  0  0
   -3.1030   39.7150   22.1100 C   0  0  0  0  0  0  0  0  0  0  0  0
   -3.8650   38.7830   21.3640 C   0  0  0  0  0  3  0  0  0  0  0  0
   -3.2030   37.5890   21.3340 C   0  0  0  0  0  0  0  0  0  0  0  0
   -3.4830   36.3400   20.7780 C   0  0  0  0  0  3  0  0  0  0  0  0
   -2.6220   35.2820   20.9320 C   0  0  0  0  0  3  0  0  0  0  0  0
   -1.4750   35.4970   21.6540 C   0  0  0  0  0  3  0  0  0  0  0  0
   -1.2020   36.7390   22.2040 C   0  0  0  0  0  3  0  0  0  0  0  0
   -2.0450   37.8150   22.0650 C   0  0  0  0  0  0  0  0  0  0  0  0
   -3.5290   41.0720   22.3260 C   0  0  0  0  0  0  0  0  0  0  0  0
   -3.0000   41.9980   21.6000 O   0  0  0  0  0  1  0  0  0  0  0  0
   -4.4490   41.5320   23.2200 O   0  0  0  0  0  0  0  0  0  0  0  0
  9  8  2  0
  9 10  1  0
 17 18  1  0
 17 16  2  0
 18 19  2  0
  8  7  1  0
 16 15  1  0
 16 21  1  0
 15 14  2  0
 10 11  2  0
 23 22  1  0
 19 20  1  0
 21 20  2  0
 21 13  1  0
 14 22  1  0
 14 13  1  0
  7  6  2  0
  7 12  1  0
 22 24  2  0
  6  5  1  0
 13  1  1  0
 11 12  1  0
 11  1  1  0
 12  3  2  0
  5  4  2  0
  3  4  1  0
  3  2  1  0
M  RAD  8   1   3   2   2   4   2   5   2   6   2   8   2   9   2  10   2
M  CHG  1  23  -1
M  RAD  5  15   2  17   2  18   2  19   2  20   2
M  END
>  <_TriposChargeType>  (1) 
GASTEIGER

>  <SuCOS_score>  (1) 
0.3822373333309045

>  <Volume_score>  (1) 
0.41089382388686335

>  <Feature_score>  (1) 
0.35358084277494556

$$$$
