DOCK.F40.P5yjm/L1013_ligand.pdbt
     RDKit          3D

 27 30  0  0  0  0  0  0  0  0999 V2000
   -1.2490   37.6030   22.9920 N   0  0  0  0  0  4  0  0  0  0  0  0
   -1.5030   37.6010   21.6520 C   0  0  0  0  0  0  0  0  0  0  0  0
   -1.4570   36.3220   21.1450 C   0  0  0  0  0  0  0  0  0  0  0  0
   -1.1570   35.5270   22.2760 C   0  0  0  0  0  0  0  0  0  0  0  0
   -1.0030   34.1670   22.4320 C   0  0  0  0  0  3  0  0  0  0  0  0
   -0.7320   33.6190   23.6700 C   0  0  0  0  0  3  0  0  0  0  0  0
   -0.6120   34.4380   24.7640 C   0  0  0  0  0  3  0  0  0  0  0  0
   -0.7630   35.7950   24.6290 C   0  0  0  0  0  3  0  0  0  0  0  0
   -1.0420   36.3330   23.3580 C   0  0  0  0  0  0  0  0  0  0  0  0
   -1.8060   38.8430   20.9400 C   0  0  0  0  0  0  0  0  0  0  0  0
   -0.8780   39.3330   20.2000 O   0  0  0  0  0  1  0  0  0  0  0  0
   -3.0000   39.5270   21.0000 O   0  0  0  0  0  0  0  0  0  0  0  0
   -1.1890   38.7260   23.9200 C   0  0  0  0  0  2  0  0  0  0  0  0
    0.2390   39.1050   24.2240 C   0  0  0  0  0  2  0  0  0  0  0  0
    1.6840   40.0000   22.6440 C   0  0  0  0  0  1  0  0  0  0  0  0
    0.6900   40.2300   23.5870 O   0  0  0  0  0  0  0  0  0  0  0  0
   -1.7260   35.8000   19.7990 C   0  0  0  0  0  2  0  0  0  0  0  0
   -2.8800   35.0300   19.4740 C   0  0  0  0  0  0  0  0  0  0  0  0
   -4.0130   35.0340   20.3150 C   0  0  0  0  0  3  0  0  0  0  0  0
   -5.1250   34.2840   20.1110 C   0  0  0  0  0  3  0  0  0  0  0  0
   -5.2040   33.4530   19.0320 C   0  0  0  0  0  3  0  0  0  0  0  0
   -4.1390   33.3960   18.1720 C   0  0  0  0  0  0  0  0  0  0  0  0
   -4.2000   32.5470   17.0740 C   0  0  0  0  0  3  0  0  0  0  0  0
   -3.1530   32.4410   16.1750 C   0  0  0  0  0  3  0  0  0  0  0  0
   -2.0500   33.2000   16.4000 C   0  0  0  0  0  3  0  0  0  0  0  0
   -2.0030   34.0320   17.4870 C   0  0  0  0  0  3  0  0  0  0  0  0
   -3.0070   34.1800   18.4080 C   0  0  0  0  0  0  0  0  0  0  0  0
 24 25  2  0
 24 23  1  0
 25 26  1  0
 23 22  2  0
 26 27  2  0
 22 27  1  0
 22 21  1  0
 27 18  1  0
 21 20  2  0
 18 17  1  0
 18 19  2  0
 17  3  1  0
 20 19  1  0
 11 10  1  0
 10 12  2  0
 10  2  1  0
  3  2  2  0
  3  4  1  0
  2  1  1  0
  4  5  2  0
  4  9  1  0
  5  6  1  0
 15 16  1  0
  1  9  1  0
  1 13  1  0
  9  8  2  0
 16 14  1  0
  6  7  2  0
 13 14  1  0
  8  7  1  0
M  RAD  8   5   2   6   2   7   2   8   2  13   3  14   3  15   2  17   3
M  CHG  2   1   1  11  -1
M  RAD  7  19   2  20   2  21   2  23   2  24   2  25   2  26   2
M  END
>  <_TriposChargeType>  (1) 
GASTEIGER

>  <SuCOS_score>  (1) 
0.16042140534604277

>  <Volume_score>  (1) 
0.3067477876106195

>  <Feature_score>  (1) 
0.014095023081466047

$$$$
