DOCK.F40.P5yjm/L1012_ligand.pdbt
     RDKit          3D

 30 32  0  0  0  0  0  0  0  0999 V2000
   -5.7790   36.9300   21.3320 N   0  0  0  0  0  0  0  0  0  0  0  0
   -6.7620   36.6650   21.0760 H   0  0  0  0  0  0  0  0  0  0  0  0
   -4.7600   40.9990   21.4030 C   0  0  0  0  0  0  0  0  0  0  0  0
   -3.7770   40.0570   21.6130 C   0  0  0  0  0  3  0  0  0  0  0  0
   -4.1240   38.7110   21.5860 C   0  0  0  0  0  3  0  0  0  0  0  0
   -5.4090   38.2890   21.3560 C   0  0  0  0  0  0  0  0  0  0  0  0
   -6.3760   39.2470   21.1490 C   0  0  0  0  0  0  0  0  0  0  0  0
   -6.0760   40.5940   21.1680 C   0  0  0  0  0  3  0  0  0  0  0  0
   -8.0260   38.7520   20.8550 S   0  0  2  0  0  6  0  0  0  0  0  0
   -8.8410   38.3670   22.3930 C   0  0  0  0  0  1  0  0  0  0  0  0
   -8.0760   37.4810   20.0260 O   0  0  0  0  0  0  0  0  0  0  0  0
   -8.8160   39.8410   20.2000 O   0  0  0  0  0  0  0  0  0  0  0  0
   -4.4340   42.4210   21.4250 C   0  0  0  0  0  0  0  0  0  0  0  0
   -4.0010   43.0000   20.4010 O   0  0  0  0  0  0  0  0  0  0  0  0
   -5.8190   43.8220   22.8500 C   0  0  0  0  0  1  0  0  0  0  0  0
   -4.6000   43.1460   22.5830 O   0  0  0  0  0  0  0  0  0  0  0  0
   -4.6590   35.7110   21.7090 S   0  0  2  0  0  6  0  0  0  0  0  0
   -5.3380   34.5570   22.3930 O   0  0  0  0  0  0  0  0  0  0  0  0
   -3.6620   36.2520   22.7050 O   0  0  0  0  0  0  0  0  0  0  0  0
   -3.8370   35.0420   20.3140 C   0  0  0  0  0  0  0  0  0  0  0  0
   -2.2000   35.2290   19.8990 S   0  0  0  0  0  0  0  0  0  0  0  0
   -2.1660   34.3130   18.4610 C   0  0  0  0  0  0  0  0  0  0  0  0
   -1.1570   34.0000   17.5390 C   0  0  0  0  0  3  0  0  0  0  0  0
   -1.4370   33.2110   16.4330 C   0  0  0  0  0  3  0  0  0  0  0  0
   -2.7330   32.7820   16.3280 C   0  0  0  0  0  0  0  0  0  0  0  0
   -3.0210   32.0000   15.2380 F   0  0  0  0  0  0  0  0  0  0  0  0
   -3.7310   33.0730   17.2110 C   0  0  0  0  0  3  0  0  0  0  0  0
   -3.4550   33.8770   18.3420 C   0  0  0  0  0  0  0  0  0  0  0  0
   -4.3260   34.2580   19.3060 C   0  0  0  0  0  0  0  0  0  0  0  0
   -5.8040   33.8760   19.3530 C   0  0  0  0  0  1  0  0  0  0  0  0
 26 25  1  0
 25 24  2  0
 25 27  1  0
 24 23  1  0
 27 28  2  0
 23 22  2  0
 28 22  1  0
 28 29  1  0
 22 21  1  0
 29 30  1  0
 29 20  2  0
 21 20  1  0
 11  9  2  0
 12  9  2  0
 20 17  1  0
 14 13  2  0
  9  7  1  0
  9 10  1  1
  2  1  1  0
  7  8  1  0
  7  6  2  0
  8  3  2  0
  1  6  1  0
 17  1  1  6
  6  5  1  0
  3 13  1  0
  3  4  1  0
 13 16  1  0
  5  4  2  0
 17 18  2  0
 17 19  2  0
 16 15  1  0
M  RAD  8   4   2   5   2   8   2  10   2  15   2  23   2  24   2  27   2
M  RAD  1  30   2
M  END
>  <_TriposChargeType>  (1) 
GASTEIGER

>  <SuCOS_score>  (1) 
0.1679842328174185

>  <Volume_score>  (1) 
0.31681747958508055

>  <Feature_score>  (1) 
0.01915098604975646

$$$$
