DOCK.F40.P5yjm/L1015_ligand.pdbt
     RDKit          3D

 32 35  0  0  0  0  0  0  0  0999 V2000
   -2.7290   37.6140   22.2980 N   0  0  0  0  0  0  0  0  0  0  0  0
   -3.0210   37.2980   23.2480 H   0  0  0  0  0  0  0  0  0  0  0  0
   -2.7850   36.6970   21.2340 C   0  0  0  0  0  0  0  0  0  0  0  0
   -1.7260   36.3400   20.4220 C   0  0  0  0  0  3  0  0  0  0  0  0
   -1.8130   35.4220   19.3940 C   0  0  0  0  0  3  0  0  0  0  0  0
   -3.0120   34.8120   19.1410 C   0  0  0  0  0  0  0  0  0  0  0  0
   -4.0890   35.1460   19.9340 C   0  0  0  0  0  3  0  0  0  0  0  0
   -3.9950   36.0470   20.9380 C   0  0  0  0  0  0  0  0  0  0  0  0
   -3.1870   33.8280   18.0690 C   0  0  0  0  0  0  0  0  0  0  0  0
   -4.2700   32.9680   18.0320 C   0  0  0  0  0  3  0  0  0  0  0  0
   -4.4000   32.0500   16.9990 C   0  0  0  0  0  3  0  0  0  0  0  0
   -3.4730   32.0000   16.0430 N   0  0  0  0  0  0  0  0  0  0  0  0
   -2.4020   32.8150   16.0380 C   0  0  0  0  0  3  0  0  0  0  0  0
   -2.2670   33.7250   17.0530 C   0  0  0  0  0  3  0  0  0  0  0  0
   -5.3880   36.4350   21.9130 S   0  0  1  0  0  6  0  0  0  0  0  0
   -5.9450   38.0600   21.4680 C   0  0  0  0  0  1  0  0  0  0  0  0
   -6.4840   35.4450   21.6420 O   0  0  0  0  0  0  0  0  0  0  0  0
   -5.0760   36.3440   23.3810 O   0  0  0  0  0  0  0  0  0  0  0  0
   -2.2010   39.2120   22.0760 S   0  0  2  0  0  6  0  0  0  0  0  0
   -2.7730   40.0660   23.2000 O   0  0  0  0  0  0  0  0  0  0  0  0
   -2.7720   39.7840   20.8060 O   0  0  0  0  0  0  0  0  0  0  0  0
   -0.0620   38.7120   24.4290 C   0  0  0  0  0  1  0  0  0  0  0  0
    0.4550   39.1400   23.0630 C   0  0  0  0  0  0  0  0  0  0  0  0
   -0.4580   39.3500   22.0710 C   0  0  0  0  0  0  0  0  0  0  0  0
    0.4910   39.8010   20.7430 S   0  0  0  0  0  0  0  0  0  0  0  0
    2.0440   39.7160   21.4730 C   0  0  0  0  0  0  0  0  0  0  0  0
    3.3380   39.9520   21.0010 C   0  0  0  0  0  3  0  0  0  0  0  0
    4.4280   39.8000   21.8320 C   0  0  0  0  0  3  0  0  0  0  0  0
    4.1340   39.4120   23.1210 C   0  0  0  0  0  0  0  0  0  0  0  0
    5.1980   39.2570   23.9590 F   0  0  0  0  0  0  0  0  0  0  0  0
    2.8770   39.1780   23.5990 C   0  0  0  0  0  3  0  0  0  0  0  0
    1.7540   39.3300   22.7520 C   0  0  0  0  0  0  0  0  0  0  0  0
 13 12  2  0
 13 14  1  0
 12 11  1  0
 11 10  2  0
 14  9  2  0
 10  9  1  0
  9  6  1  0
  6  5  1  0
  6  7  2  0
  5  4  2  0
  7  8  1  0
  4  3  1  0
 25 26  1  0
 25 24  1  0
 21 19  2  0
  8  3  2  0
  8 15  1  0
 27 26  1  0
 27 28  2  0
  3  1  1  0
 15 16  1  1
 26 32  2  0
 17 15  2  0
 28 29  1  0
 15 18  2  0
 24 19  1  0
 24 23  2  0
 19  1  1  1
 19 20  2  0
  1  2  1  0
 32 23  1  0
 32 31  1  0
 23 22  1  0
 29 31  2  0
 29 30  1  0
M  RAD  8   4   2   5   2   7   2  10   2  11   2  13   2  14   2  16   2
M  RAD  4  22   2  27   2  28   2  31   2
M  END
>  <_TriposChargeType>  (1) 
GASTEIGER

>  <SuCOS_score>  (1) 
0.3388615051055244

>  <Volume_score>  (1) 
0.47051012504149603

>  <Feature_score>  (1) 
0.20721288516955277

$$$$
