DOCK.F40.P5yjm/L1011_ligand.pdbt
     RDKit          3D

 30 33  0  0  0  0  0  0  0  0999 V2000
   -2.8100   36.1280   21.5770 C   0  0  0  0  0  0  0  0  0  0  0  0
   -2.7310   37.4160   22.0930 C   0  0  0  0  0  0  0  0  0  0  0  0
   -1.8720   37.3860   23.1600 N   0  0  0  0  0  4  0  0  0  0  0  0
   -1.4060   36.1350   23.3310 C   0  0  0  0  0  0  0  0  0  0  0  0
   -0.5250   35.5500   24.2260 C   0  0  0  0  0  3  0  0  0  0  0  0
   -0.2000   34.2090   24.1820 C   0  0  0  0  0  3  0  0  0  0  0  0
   -0.7960   33.4480   23.1950 C   0  0  0  0  0  0  0  0  0  0  0  0
   -0.4880   32.1290   23.1460 F   0  0  0  0  0  0  0  0  0  0  0  0
   -1.6690   34.0120   22.3030 C   0  0  0  0  0  3  0  0  0  0  0  0
   -1.9790   35.3540   22.3620 C   0  0  0  0  0  0  0  0  0  0  0  0
   -3.4290   38.5380   21.4950 C   0  0  0  0  0  0  0  0  0  0  0  0
   -2.8010   39.4000   20.8000 O   0  0  0  0  0  1  0  0  0  0  0  0
   -4.7910   38.7460   21.6350 O   0  0  0  0  0  0  0  0  0  0  0  0
   -3.5840   35.6500   20.4050 C   0  0  0  0  0  2  0  0  0  0  0  0
   -2.0190   33.8010   17.4000 C   0  0  0  0  0  1  0  0  0  0  0  0
   -3.0060   34.1490   18.4160 N   0  0  0  0  0  0  0  0  0  0  0  0
   -4.2240   33.4000   18.4230 C   0  0  0  0  0  1  0  0  0  0  0  0
   -2.7100   35.1890   19.3160 C   0  0  0  0  0  0  0  0  0  0  0  0
   -1.5940   35.8000   19.2000 O   0  0  0  0  0  0  0  0  0  0  0  0
   -1.6040   38.5520   23.9720 C   0  0  0  0  0  2  0  0  0  0  0  0
   -0.1400   38.7920   24.0340 C   0  0  0  0  0  0  0  0  0  0  0  0
    0.6000   38.2590   25.0860 C   0  0  0  0  0  3  0  0  0  0  0  0
    1.9830   38.3620   25.1090 C   0  0  0  0  0  3  0  0  0  0  0  0
    2.6260   38.9980   24.0800 C   0  0  0  0  0  3  0  0  0  0  0  0
    1.9500   39.5440   23.0180 C   0  0  0  0  0  0  0  0  0  0  0  0
    2.6530   40.2250   22.0170 C   0  0  0  0  0  3  0  0  0  0  0  0
    1.9220   40.8000   21.0000 C   0  0  0  0  0  3  0  0  0  0  0  0
    0.5610   40.7300   20.9350 C   0  0  0  0  0  3  0  0  0  0  0  0
   -0.0990   40.0320   21.9660 C   0  0  0  0  0  3  0  0  0  0  0  0
    0.5650   39.4340   23.0090 C   0  0  0  0  0  0  0  0  0  0  0  0
 15 16  1  0
 16 17  1  0
 16 18  1  0
 19 18  2  0
 18 14  1  0
 14  1  1  0
 12 11  1  0
 28 27  2  0
 28 29  1  0
 27 26  1  0
 11 13  2  0
 11  2  1  0
  1  2  2  0
  1 10  1  0
 29 30  2  0
 26 25  2  0
  2  3  1  0
  9 10  1  0
  9  7  2  0
 10  4  2  0
 30 25  1  0
 30 21  1  0
 25 24  1  0
  8  7  1  0
  3  4  1  0
  3 20  1  0
  7  6  1  0
  4  5  1  0
 20 21  1  0
 21 22  2  0
 24 23  2  0
  6  5  2  0
 22 23  1  0
M  RAD  8   5   2   6   2   9   2  14   3  15   2  17   2  20   3  22   2
M  CHG  2   3   1  12  -1
M  RAD  6  23   2  24   2  26   2  27   2  28   2  29   2
M  END
>  <_TriposChargeType>  (1) 
GASTEIGER

>  <SuCOS_score>  (1) 
0.2719037457609446

>  <Volume_score>  (1) 
0.42225660293955136

>  <Feature_score>  (1) 
0.12155088858233783

$$$$
