DOCK.F40.P3n7o/L1003_ligand.pdbt
     RDKit          3D

 32 35  0  0  0  0  0  0  0  0999 V2000
   -2.2860   36.5820   23.3840 N   0  0  0  0  0  0  0  0  0  0  0  0
   -2.3390   35.9410   24.2340 H   0  0  0  0  0  0  0  0  0  0  0  0
   -2.4380   35.9790   22.1360 C   0  0  0  0  0  0  0  0  0  0  0  0
   -3.0130   36.6230   21.0510 C   0  0  0  0  0  3  0  0  0  0  0  0
   -3.1610   36.0000   19.8230 C   0  0  0  0  0  3  0  0  0  0  0  0
   -2.7380   34.7040   19.6370 C   0  0  0  0  0  0  0  0  0  0  0  0
   -2.1660   34.0500   20.7000 C   0  0  0  0  0  3  0  0  0  0  0  0
   -2.0200   34.6820   21.9310 C   0  0  0  0  0  0  0  0  0  0  0  0
   -2.8670   33.9960   18.3710 C   0  0  0  0  0  0  0  0  0  0  0  0
   -4.0580   33.4000   17.9910 C   0  0  0  0  0  3  0  0  0  0  0  0
   -4.2130   32.7230   16.8000 C   0  0  0  0  0  3  0  0  0  0  0  0
   -3.1470   32.6360   15.9620 N   0  0  0  0  0  0  0  0  0  0  0  0
   -1.9840   33.2030   16.3080 C   0  0  0  0  0  3  0  0  0  0  0  0
   -1.8090   33.8850   17.4920 C   0  0  0  0  0  3  0  0  0  0  0  0
   -1.4020   33.8880   23.0050 C   0  0  2  0  0  0  0  0  0  0  0  0
   -2.1910   33.7370   24.1110 F   0  0  0  0  0  0  0  0  0  0  0  0
   -0.1710   34.4750   23.3360 F   0  0  0  0  0  0  0  0  0  0  0  0
   -1.0810   32.6190   22.5680 F   0  0  0  0  0  0  0  0  0  0  0  0
   -2.0260   38.2360   23.7220 S   0  0  1  0  0  6  0  0  0  0  0  0
   -3.0320   39.1010   22.9970 O   0  0  0  0  0  0  0  0  0  0  0  0
   -2.2750   38.5230   25.2000 O   0  0  0  0  0  0  0  0  0  0  0  0
    0.8000   38.1620   25.4490 C   0  0  0  0  0  1  0  0  0  0  0  0
    0.7680   38.7480   24.0450 C   0  0  0  0  0  0  0  0  0  0  0  0
   -0.3990   38.7580   23.3560 C   0  0  0  0  0  0  0  0  0  0  0  0
    0.0420   39.4820   21.8620 S   0  0  0  0  0  0  0  0  0  0  0  0
    1.6950   39.7460   22.1650 C   0  0  0  0  0  0  0  0  0  0  0  0
    2.7190   40.3060   21.3990 C   0  0  0  0  0  3  0  0  0  0  0  0
    4.0000   40.4000   21.8990 C   0  0  0  0  0  3  0  0  0  0  0  0
    4.1720   39.9110   23.1770 C   0  0  0  0  0  0  0  0  0  0  0  0
    5.4400   40.0000   23.6810 F   0  0  0  0  0  0  0  0  0  0  0  0
    3.1760   39.3610   23.9340 C   0  0  0  0  0  3  0  0  0  0  0  0
    1.8650   39.2620   23.4270 C   0  0  0  0  0  0  0  0  0  0  0  0
 12 13  2  0
 12 11  1  0
 13 14  1  0
 11 10  2  0
 14  9  2  0
 10  9  1  0
  9  6  1  0
  6  5  1  0
  6  7  2  0
  5  4  2  0
  7  8  1  0
  4  3  1  0
 27 28  2  0
 27 26  1  0
 25 26  1  0
 25 24  1  0
 28 29  1  0
  8  3  2  0
  8 15  1  0
  3  1  1  0
 26 32  2  0
 15 18  1  6
 20 19  2  0
 15 17  1  0
 15 16  1  0
 29 30  1  0
 29 31  2  0
 24 19  1  0
 24 23  2  0
 19  1  1  1
  1  2  1  0
 32 31  1  0
 32 23  1  0
 19 21  2  0
 23 22  1  0
M  RAD  8   4   2   5   2   7   2  10   2  11   2  13   2  14   2  22   2
M  RAD  3  27   2  28   2  31   2
M  END
>  <_TriposChargeType>  (1) 
GASTEIGER

>  <SuCOS_score>  (1) 
0.29737763439639775

>  <Volume_score>  (1) 
0.4030759017481744

>  <Feature_score>  (1) 
0.19167936704462107

$$$$
