DOCK.F40.P3n7o/L1005_ligand.pdbt
     RDKit          3D

 31 34  0  0  0  0  0  0  0  0999 V2000
   -4.0870   40.0720   23.9980 C   0  0  0  0  0  0  0  0  0  0  0  0
   -3.0760   39.7590   23.0630 C   0  0  0  0  0  0  0  0  0  0  0  0
   -2.3800   38.7120   23.4820 N   0  0  0  0  0  4  0  0  0  0  0  0
   -2.9090   38.3120   24.7040 C   0  0  0  0  0  0  0  0  0  0  0  0
   -2.4720   37.2850   25.5120 C   0  0  0  0  0  3  0  0  0  0  0  0
   -3.1430   37.0930   26.7280 C   0  0  0  0  0  3  0  0  0  0  0  0
   -4.1900   37.9160   27.0650 C   0  0  0  0  0  0  0  0  0  0  0  0
   -4.8620   37.7410   28.2540 F   0  0  0  0  0  0  0  0  0  0  0  0
   -4.5930   38.9360   26.2200 C   0  0  0  0  0  3  0  0  0  0  0  0
   -3.9560   39.1560   25.0100 C   0  0  0  0  0  0  0  0  0  0  0  0
   -2.9020   40.5690   21.8570 C   0  0  0  0  0  0  0  0  0  0  0  0
   -3.5990   40.3720   20.8020 O   0  0  0  0  0  1  0  0  0  0  0  0
   -1.9990   41.6000   21.7370 O   0  0  0  0  0  0  0  0  0  0  0  0
   -5.0280   41.1880   23.8550 C   0  0  0  0  0  2  0  0  0  0  0  0
   -4.8560   43.6200   23.2230 C   0  0  0  0  0  0  0  0  0  0  0  0
   -5.5870   43.4070   22.2070 O   0  0  0  0  0  0  0  0  0  0  0  0
   -4.5640   42.5110   24.0620 N   0  0  0  0  0  0  0  0  0  0  0  0
   -3.9450   42.7520   24.9060 H   0  0  0  0  0  0  0  0  0  0  0  0
   -4.2030   45.3910   24.7960 C   0  0  0  0  0  1  0  0  0  0  0  0
   -4.3710   44.8980   23.4860 O   0  0  0  0  0  0  0  0  0  0  0  0
   -1.2270   38.0700   22.8750 C   0  0  0  0  0  2  0  0  0  0  0  0
    0.0140   38.5440   23.4560 C   0  0  0  0  0  0  0  0  0  0  0  0
    0.3280   38.2670   24.7790 C   0  0  0  0  0  3  0  0  0  0  0  0
    1.5230   38.5820   25.3850 C   0  0  0  0  0  3  0  0  0  0  0  0
    2.4590   39.2200   24.5990 C   0  0  0  0  0  3  0  0  0  0  0  0
    2.2070   39.5210   23.2990 C   0  0  0  0  0  0  0  0  0  0  0  0
    3.1610   40.2000   22.5930 C   0  0  0  0  0  3  0  0  0  0  0  0
    2.9390   40.5790   21.2750 C   0  0  0  0  0  3  0  0  0  0  0  0
    1.7170   40.2470   20.6970 C   0  0  0  0  0  3  0  0  0  0  0  0
    0.7510   39.5620   21.4020 C   0  0  0  0  0  3  0  0  0  0  0  0
    0.9750   39.1860   22.7030 C   0  0  0  0  0  0  0  0  0  0  0  0
 29 28  2  0
 29 30  1  0
 12 11  1  0
 28 27  1  0
 30 31  2  0
 13 11  2  0
 11  2  1  0
 16 15  2  0
 27 26  2  0
 31 26  1  0
 31 22  1  0
 21 22  1  0
 21  3  1  0
  2  3  1  0
  2  1  2  0
 15 20  1  0
 15 17  1  0
 26 25  1  0
 22 23  2  0
  3  4  1  0
 20 19  1  0
 14  1  1  0
 14 17  1  0
  1 10  1  0
 17 18  1  0
 25 24  2  0
  4 10  2  0
  4  5  1  0
 23 24  1  0
 10  9  1  0
  5  6  2  0
  9  7  2  0
  6  7  1  0
  7  8  1  0
M  RAD  8   5   2   6   2   9   2  14   3  19   2  21   3  23   2  24   2
M  CHG  2   3   1  12  -1
M  RAD  5  25   2  27   2  28   2  29   2  30   2
M  END
>  <_TriposChargeType>  (1) 
GASTEIGER

>  <SuCOS_score>  (1) 
0.2410114769281196

>  <Volume_score>  (1) 
0.37466843501326264

>  <Feature_score>  (1) 
0.1073545188429766

$$$$
