DOCK.F40.P3n7o/L1009_ligand.pdbt
     RDKit          3D

 34 38  0  0  0  0  0  0  0  0999 V2000
   -2.3080   38.3060   22.9950 C   0  0  0  0  0  3  0  0  0  0  0  0
    0.2350   38.0010   24.9160 C   0  0  0  0  0  1  0  0  0  0  0  0
    0.1730   38.6570   23.5750 C   0  0  0  0  0  0  0  0  0  0  0  0
   -0.9190   38.7950   22.7460 C   0  0  0  0  0  0  0  0  0  0  0  0
   -0.4590   39.4590   21.6730 N   0  0  0  0  0  0  0  0  0  0  0  0
    0.8400   39.7400   21.7810 C   0  0  0  0  0  0  0  0  0  0  0  0
    1.7660   40.3950   20.9620 C   0  0  0  0  0  3  0  0  0  0  0  0
    3.0690   40.5100   21.3990 C   0  0  0  0  0  3  0  0  0  0  0  0
    3.5040   40.0100   22.6040 C   0  0  0  0  0  0  0  0  0  0  0  0
    4.8090   40.1570   22.9820 F   0  0  0  0  0  0  0  0  0  0  0  0
    2.5910   39.3670   23.4070 C   0  0  0  0  0  3  0  0  0  0  0  0
    1.2740   39.2400   22.9880 C   0  0  0  0  0  0  0  0  0  0  0  0
   -1.0190   39.7460   20.8210 H   0  0  0  0  0  0  0  0  0  0  0  0
   -3.2710   39.3990   23.2400 C   0  0  0  0  0  0  0  0  0  0  0  0
   -3.9550   39.7120   24.3160 C   0  0  0  0  0  0  0  0  0  0  0  0
   -3.9320   39.0440   25.5650 O   0  0  0  0  0  0  0  0  0  0  0  0
   -4.7950   40.9020   24.0710 C   0  0  0  0  0  3  0  0  0  0  0  0
   -4.5330   41.2940   22.7600 O   0  0  0  0  0  0  0  0  0  0  0  0
   -3.6280   40.4080   22.2170 C   0  0  0  0  0  0  0  0  0  0  0  0
   -3.2000   40.4820   21.0380 O   0  0  0  0  0  0  0  0  0  0  0  0
   -4.8480   38.7210   25.8850 H   0  0  0  0  0  0  0  0  0  0  0  0
   -4.4100   42.0640   24.9700 C   0  0  0  0  0  2  0  0  0  0  0  0
   -5.1030   43.2930   24.5060 C   0  0  0  0  0  0  0  0  0  0  0  0
   -6.4720   43.3150   24.3700 C   0  0  0  0  0  3  0  0  0  0  0  0
   -7.1520   44.4450   23.9380 C   0  0  0  0  0  3  0  0  0  0  0  0
   -6.4360   45.6000   23.6280 C   0  0  0  0  0  3  0  0  0  0  0  0
   -5.0720   45.5640   23.7690 C   0  0  0  0  0  3  0  0  0  0  0  0
   -4.4000   44.4400   24.1990 C   0  0  0  0  0  3  0  0  0  0  0  0
   -2.7500   37.3700   21.9460 C   0  0  0  0  0  0  0  0  0  0  0  0
   -1.9240   37.0000   20.8850 C   0  0  0  0  0  3  0  0  0  0  0  0
   -2.4000   36.1240   19.9350 C   0  0  0  0  0  3  0  0  0  0  0  0
   -3.6730   35.6000   20.0010 C   0  0  0  0  0  3  0  0  0  0  0  0
   -4.5050   35.9640   21.0570 C   0  0  0  0  0  3  0  0  0  0  0  0
   -4.0180   36.8300   21.9860 C   0  0  0  0  0  3  0  0  0  0  0  0
 31 32  1  0
 31 30  2  0
 32 33  2  0
 13  5  1  0
 30 29  1  0
  7  8  2  0
  7  6  1  0
 20 19  2  0
 33 34  1  0
  8  9  1  0
  5  6  1  0
  5  4  1  0
  6 12  2  0
 29 34  2  0
 29  1  1  0
 19 18  1  0
 19 14  1  0
  9 10  1  0
  9 11  2  0
  4  1  1  0
  4  3  2  0
 18 17  1  0
 12 11  1  0
 12  3  1  0
  1 14  1  0
 14 15  2  0
  3  2  1  0
 26 27  2  0
 26 25  1  0
 27 28  1  0
 25 24  2  0
 17 15  1  0
 17 22  1  0
 28 23  2  0
 15 16  1  0
 24 23  1  0
 23 22  1  0
 16 21  1  0
M  RAD  8   1   2   2   2   7   2   8   2  11   2  17   2  22   3  24   2
M  RAD  8  25   2  26   2  27   2  28   2  30   2  31   2  32   2  33   2
M  RAD  1  34   2
M  END
>  <_TriposChargeType>  (1) 
GASTEIGER

>  <SuCOS_score>  (1) 
0.30194427576852756

>  <Volume_score>  (1) 
0.48480816145486805

>  <Feature_score>  (1) 
0.11908039008218703

$$$$
