DOCK.F40.P3n7o/L1002_ligand.pdbt
     RDKit          3D

 40 44  0  0  0  0  0  0  0  0999 V2000
   -1.4250   36.2020   22.5230 C   0  0  0  0  0  3  0  0  0  0  0  0
   -7.1290   37.1050   20.8320 C   0  0  0  0  0  0  0  0  0  0  0  0
   -6.9290   36.0210   20.0000 C   0  0  0  0  0  3  0  0  0  0  0  0
   -5.7100   35.4040   20.0000 C   0  0  0  0  0  3  0  0  0  0  0  0
   -4.7000   35.8760   20.8350 C   0  0  0  0  0  0  0  0  0  0  0  0
   -3.4020   35.4770   21.0550 C   0  0  0  0  0  0  0  0  0  0  0  0
   -2.8140   36.2920   21.9990 C   0  0  0  0  0  0  0  0  0  0  0  0
   -3.7440   37.1990   22.3670 N   0  0  0  0  0  0  0  0  0  0  0  0
   -4.8910   36.9660   21.6770 C   0  0  0  0  0  0  0  0  0  0  0  0
   -6.1330   37.5820   21.6650 C   0  0  0  0  0  3  0  0  0  0  0  0
   -3.6770   37.9790   23.0580 H   0  0  0  0  0  0  0  0  0  0  0  0
   -9.3900   36.9830   19.8510 C   0  0  0  0  0  1  0  0  0  0  0  0
   -8.4760   37.7420   20.7940 C   0  0  0  0  0  2  0  0  0  0  0  0
   -2.7520   34.3460   20.3720 C   0  0  0  0  0  2  0  0  0  0  0  0
   -2.2020   34.6820   19.0330 C   0  0  0  0  0  2  0  0  0  0  0  0
   -2.9610   34.0140   18.0080 N   0  0  0  0  0  0  0  0  0  0  0  0
   -2.4350   33.4920   16.8200 C   0  0  0  0  0  0  0  0  0  0  0  0
   -3.3040   32.8000   15.7950 C   0  0  0  0  0  1  0  0  0  0  0  0
   -1.2000   33.6000   16.6010 O   0  0  0  0  0  0  0  0  0  0  0  0
   -4.0040   33.9140   18.1710 H   0  0  0  0  0  0  0  0  0  0  0  0
   -0.7870   37.5600   22.5870 C   0  0  0  0  0  0  0  0  0  0  0  0
    0.0730   38.0330   23.4370 C   0  0  0  0  0  0  0  0  0  0  0  0
    0.6160   37.3420   24.5310 O   0  0  0  0  0  0  0  0  0  0  0  0
    0.4460   39.4350   23.1330 C   0  0  0  0  0  3  0  0  0  0  0  0
   -0.1580   39.7260   21.8000 C   0  0  0  0  0  2  0  0  0  0  0  0
   -1.0920   38.5930   21.6070 C   0  0  0  0  0  0  0  0  0  0  0  0
   -2.0000   38.5650   20.7190 O   0  0  0  0  0  0  0  0  0  0  0  0
    1.6250   37.3740   24.6320 H   0  0  0  0  0  0  0  0  0  0  0  0
    1.9160   39.6250   23.1160 C   0  0  0  0  0  0  0  0  0  0  0  0
    2.5370   40.0130   21.9520 C   0  0  0  0  0  3  0  0  0  0  0  0
    3.9110   40.2000   21.8920 C   0  0  0  0  0  3  0  0  0  0  0  0
    4.6720   39.9900   23.0300 C   0  0  0  0  0  3  0  0  0  0  0  0
    4.0470   39.6000   24.1980 C   0  0  0  0  0  3  0  0  0  0  0  0
    2.6810   39.4210   24.2360 C   0  0  0  0  0  3  0  0  0  0  0  0
   -1.4320   35.5480   23.8500 C   0  0  0  0  0  0  0  0  0  0  0  0
   -0.5840   34.4910   24.0590 C   0  0  0  0  0  3  0  0  0  0  0  0
   -0.5450   33.8420   25.2680 C   0  0  0  0  0  3  0  0  0  0  0  0
   -1.3680   34.2480   26.2940 C   0  0  0  0  0  3  0  0  0  0  0  0
   -2.2110   35.3120   26.0620 C   0  0  0  0  0  3  0  0  0  0  0  0
   -2.2520   35.9670   24.8480 C   0  0  0  0  0  3  0  0  0  0  0  0
 18 17  1  0
 19 17  2  0
 17 16  1  0
 16 20  1  0
 16 15  1  0
 15 14  1  0
 12 13  1  0
  3  4  1  0
  3  2  2  0
  4  5  2  0
 14  6  1  0
 27 26  2  0
 13  2  1  0
  2 10  1  0
  5  6  1  0
  5  9  1  0
  6  7  2  0
 26 25  1  0
 26 21  1  0
 10  9  2  0
  9  8  1  0
 25 24  1  0
 31 30  2  0
 31 32  1  0
 30 29  1  0
  7  8  1  0
  7  1  1  0
  8 11  1  0
  1 21  1  0
  1 35  1  0
 21 22  2  0
 32 33  2  0
 29 24  1  0
 29 34  2  0
 24 22  1  0
 22 23  1  0
 35 36  2  0
 35 40  1  0
 36 37  1  0
 33 34  1  0
 23 28  1  0
 40 39  2  0
 37 38  2  0
 39 38  1  0
M  RAD  8   1   2   3   2   4   2  10   2  12   2  13   3  14   3  15   3
M  RAD  8  18   2  24   2  25   3  30   2  31   2  32   2  33   2  34   2
M  RAD  5  36   2  37   2  38   2  39   2  40   2
M  END
>  <_TriposChargeType>  (1) 
GASTEIGER

>  <SuCOS_score>  (1) 
0.2638109471868231

>  <Volume_score>  (1) 
0.4095480163553984

>  <Feature_score>  (1) 
0.1180738780182478

$$$$
