DOCK.F40.P3n7o/L1001_ligand.pdbt
     RDKit          3D

 32 35  0  0  0  0  0  0  0  0999 V2000
   -4.0420   39.8450   24.0170 C   0  0  0  0  0  0  0  0  0  0  0  0
   -3.0200   39.6260   23.0800 C   0  0  0  0  0  0  0  0  0  0  0  0
   -2.2430   38.6240   23.5010 N   0  0  0  0  0  4  0  0  0  0  0  0
   -2.7380   38.2010   24.6750 C   0  0  0  0  0  0  0  0  0  0  0  0
   -2.2980   37.1760   25.5340 C   0  0  0  0  0  3  0  0  0  0  0  0
   -2.9490   36.8980   26.6960 C   0  0  0  0  0  3  0  0  0  0  0  0
   -4.0630   37.6200   27.0600 C   0  0  0  0  0  0  0  0  0  0  0  0
   -4.7400   37.3780   28.2050 F   0  0  0  0  0  0  0  0  0  0  0  0
   -4.4850   38.6260   26.2040 C   0  0  0  0  0  3  0  0  0  0  0  0
   -3.8410   38.9340   25.0100 C   0  0  0  0  0  0  0  0  0  0  0  0
   -2.8790   40.4030   21.8590 C   0  0  0  0  0  0  0  0  0  0  0  0
   -3.6000   40.1720   20.8800 O   0  0  0  0  0  1  0  0  0  0  0  0
   -1.9350   41.4000   21.8000 O   0  0  0  0  0  0  0  0  0  0  0  0
   -5.0710   40.8580   23.8800 C   0  0  0  0  0  2  0  0  0  0  0  0
   -4.6070   43.2030   23.3800 C   0  0  0  0  0  0  0  0  0  0  0  0
   -4.6110   42.9730   22.1390 O   0  0  0  0  0  0  0  0  0  0  0  0
   -4.8180   42.1770   24.3410 N   0  0  0  0  0  0  0  0  0  0  0  0
   -4.7930   42.5520   25.7510 C   0  0  0  0  0  1  0  0  0  0  0  0
   -4.3920   44.4950   23.8010 O   0  0  0  0  0  0  0  0  0  0  0  0
   -6.6500   45.2000   23.6000 C   0  0  0  0  0  1  0  0  0  0  0  0
   -5.2000   45.5990   23.4580 C   0  0  0  0  0  2  0  0  0  0  0  0
   -1.0870   38.0630   22.8670 C   0  0  0  0  0  2  0  0  0  0  0  0
    0.1820   38.4730   23.5080 C   0  0  0  0  0  0  0  0  0  0  0  0
    0.5110   38.1930   24.8180 C   0  0  0  0  0  3  0  0  0  0  0  0
    1.7210   38.6000   25.3800 C   0  0  0  0  0  3  0  0  0  0  0  0
    2.5980   39.3090   24.5700 C   0  0  0  0  0  3  0  0  0  0  0  0
    2.3090   39.6120   23.2540 C   0  0  0  0  0  0  0  0  0  0  0  0
    3.1910   40.3140   22.4670 C   0  0  0  0  0  3  0  0  0  0  0  0
    2.8690   40.5970   21.1640 C   0  0  0  0  0  3  0  0  0  0  0  0
    1.6810   40.2000   20.5990 C   0  0  0  0  0  3  0  0  0  0  0  0
    0.8100   39.4930   21.4170 C   0  0  0  0  0  3  0  0  0  0  0  0
    1.0800   39.1800   22.7330 C   0  0  0  0  0  0  0  0  0  0  0  0
 30 29  2  0
 30 31  1  0
 12 11  1  0
 29 28  1  0
 31 32  2  0
 13 11  2  0
 11  2  1  0
 16 15  2  0
 28 27  2  0
 32 27  1  0
 32 23  1  0
 22  3  1  0
 22 23  1  0
  2  3  1  0
  2  1  2  0
 27 26  1  0
 15 19  1  0
 15 17  1  0
 21 20  1  0
 21 19  1  0
  3  4  1  0
 23 24  2  0
 14  1  1  0
 14 17  1  0
  1 10  1  0
 17 18  1  0
 26 25  2  0
  4 10  2  0
  4  5  1  0
 24 25  1  0
 10  9  1  0
  5  6  2  0
  9  7  2  0
  6  7  1  0
  7  8  1  0
M  RAD  8   5   2   6   2   9   2  14   3  18   2  20   2  21   3  22   3
M  CHG  2   3   1  12  -1
M  RAD  7  24   2  25   2  26   2  28   2  29   2  30   2  31   2
M  END
>  <_TriposChargeType>  (1) 
GASTEIGER

>  <SuCOS_score>  (1) 
0.24559762234628868

>  <Volume_score>  (1) 
0.38086822047939906

>  <Feature_score>  (1) 
0.11032702421317828

$$$$
