DOCK.F40.P3n7o/L1016_ligand.pdbt
     RDKit          3D

 29 32  0  0  0  0  0  0  0  0999 V2000
   -3.1700   36.0770   21.4890 C   0  0  0  0  0  0  0  0  0  0  0  0
   -3.2730   37.3540   22.0630 C   0  0  0  0  0  0  0  0  0  0  0  0
   -2.3890   37.4800   23.0310 N   0  0  0  0  0  4  0  0  0  0  0  0
   -1.6930   36.2470   23.0930 C   0  0  0  0  0  0  0  0  0  0  0  0
   -0.6800   35.7990   23.8890 C   0  0  0  0  0  3  0  0  0  0  0  0
   -0.1480   34.5480   23.7640 C   0  0  0  0  0  3  0  0  0  0  0  0
   -0.6510   33.7000   22.7990 C   0  0  0  0  0  3  0  0  0  0  0  0
   -1.6680   34.1040   21.9760 C   0  0  0  0  0  3  0  0  0  0  0  0
   -2.1810   35.3980   22.1430 C   0  0  0  0  0  0  0  0  0  0  0  0
   -4.2340   38.3470   21.6000 C   0  0  0  0  0  0  0  0  0  0  0  0
   -5.4630   38.1470   21.5380 O   0  0  0  0  0  1  0  0  0  0  0  0
   -3.8000   39.6000   21.2000 O   0  0  0  0  0  0  0  0  0  0  0  0
   -3.9760   35.5220   20.3800 C   0  0  0  0  0  2  0  0  0  0  0  0
   -2.6150   33.7990   17.2000 C   0  0  0  0  0  1  0  0  0  0  0  0
   -3.4600   34.1270   18.3240 N   0  0  0  0  0  0  0  0  0  0  0  0
   -4.6750   33.4000   18.5470 C   0  0  0  0  0  1  0  0  0  0  0  0
   -3.1140   35.1700   19.2160 C   0  0  0  0  0  0  0  0  0  0  0  0
   -2.0580   35.8380   19.0450 O   0  0  0  0  0  0  0  0  0  0  0  0
   -1.9590   38.5090   23.8970 C   0  0  0  0  0  2  0  0  0  0  0  0
   -0.4800   38.6040   24.1930 C   0  0  0  0  0  0  0  0  0  0  0  0
   -0.0360   38.2000   25.4250 C   0  0  0  0  0  3  0  0  0  0  0  0
    1.6170   38.6000   25.4000 S   0  0  0  0  0  0  0  0  0  0  0  0
    1.7260   39.2650   23.8380 C   0  0  0  0  0  0  0  0  0  0  0  0
    2.7940   39.7740   23.0850 C   0  0  0  0  0  3  0  0  0  0  0  0
    2.6040   40.2000   21.7930 C   0  0  0  0  0  3  0  0  0  0  0  0
    1.3280   40.0960   21.3090 C   0  0  0  0  0  0  0  0  0  0  0  0
    1.1150   40.5140   20.0320 F   0  0  0  0  0  0  0  0  0  0  0  0
    0.2800   39.6040   22.0290 C   0  0  0  0  0  3  0  0  0  0  0  0
    0.4450   39.1600   23.3630 C   0  0  0  0  0  0  0  0  0  0  0  0
 14 15  1  0
 15 16  1  0
 15 17  1  0
 18 17  2  0
 17 13  1  0
 27 26  1  0
 13  1  1  0
 12 10  2  0
 26 25  2  0
 26 28  1  0
  1  2  2  0
  1  9  1  0
 11 10  1  0
 10  2  1  0
 25 24  1  0
  8  9  1  0
  8  7  2  0
 28 29  2  0
  2  3  1  0
  9  4  2  0
  7  6  1  0
  3  4  1  0
  3 19  1  0
 24 23  2  0
  4  5  1  0
 29 23  1  0
 29 20  1  0
  6  5  2  0
 23 22  1  0
 19 20  1  0
 20 21  2  0
 22 21  1  0
M  RAD  8   5   2   6   2   7   2   8   2  13   3  14   2  16   2  19   3
M  CHG  2   3   1  11  -1
M  RAD  4  21   2  24   2  25   2  28   2
M  END
>  <_TriposChargeType>  (1) 
GASTEIGER

>  <SuCOS_score>  (1) 
0.24352228878681095

>  <Volume_score>  (1) 
0.40482781530284573

>  <Feature_score>  (1) 
0.08221676227077616

$$$$
