DOCK.F40.P3n7o/L1013_ligand.pdbt
     RDKit          3D

 27 30  0  0  0  0  0  0  0  0999 V2000
   -2.6350   36.0410   21.3670 N   0  0  0  0  0  4  0  0  0  0  0  0
   -2.5190   37.2740   21.9380 C   0  0  0  0  0  0  0  0  0  0  0  0
   -1.6430   37.2440   22.9990 C   0  0  0  0  0  0  0  0  0  0  0  0
   -1.2210   35.8950   23.0430 C   0  0  0  0  0  0  0  0  0  0  0  0
   -0.3300   35.2330   23.8600 C   0  0  0  0  0  3  0  0  0  0  0  0
   -0.0630   33.8900   23.6820 C   0  0  0  0  0  3  0  0  0  0  0  0
   -0.6920   33.2000   22.6770 C   0  0  0  0  0  3  0  0  0  0  0  0
   -1.5820   33.8410   21.8520 C   0  0  0  0  0  3  0  0  0  0  0  0
   -1.8380   35.2110   22.0490 C   0  0  0  0  0  0  0  0  0  0  0  0
   -3.2460   38.4260   21.4000 C   0  0  0  0  0  0  0  0  0  0  0  0
   -2.5450   39.3720   20.8900 O   0  0  0  0  0  1  0  0  0  0  0  0
   -4.6150   38.5760   21.3990 O   0  0  0  0  0  0  0  0  0  0  0  0
   -3.4520   35.6200   20.2350 C   0  0  0  0  0  2  0  0  0  0  0  0
   -2.6010   35.3470   19.0200 C   0  0  0  0  0  2  0  0  0  0  0  0
   -2.0010   33.8000   17.3990 C   0  0  0  0  0  1  0  0  0  0  0  0
   -2.4740   34.0260   18.6850 O   0  0  0  0  0  0  0  0  0  0  0  0
   -1.1390   38.3100   23.8730 C   0  0  0  0  0  2  0  0  0  0  0  0
    0.2420   38.6450   23.9840 C   0  0  0  0  0  0  0  0  0  0  0  0
    0.9390   38.4520   25.1950 C   0  0  0  0  0  3  0  0  0  0  0  0
    2.2340   38.8000   25.4010 C   0  0  0  0  0  3  0  0  0  0  0  0
    2.9560   39.3810   24.4000 C   0  0  0  0  0  3  0  0  0  0  0  0
    2.3430   39.6010   23.1950 C   0  0  0  0  0  0  0  0  0  0  0  0
    3.0630   40.2000   22.1690 C   0  0  0  0  0  3  0  0  0  0  0  0
    2.4950   40.4550   20.9320 C   0  0  0  0  0  3  0  0  0  0  0  0
    1.1980   40.1000   20.7490 C   0  0  0  0  0  3  0  0  0  0  0  0
    0.5000   39.5100   21.7700 C   0  0  0  0  0  3  0  0  0  0  0  0
    1.0080   39.2320   23.0110 C   0  0  0  0  0  0  0  0  0  0  0  0
 15 16  1  0
 16 14  1  0
 14 13  1  0
 13  1  1  0
 25 24  2  0
 25 26  1  0
 11 10  1  0
 24 23  1  0
  1  2  1  0
  1  9  1  0
 12 10  2  0
 10  2  1  0
 26 27  2  0
  8  9  1  0
  8  7  2  0
  2  3  2  0
  9  4  2  0
 23 22  2  0
  7  6  1  0
  3  4  1  0
  3 17  1  0
 27 22  1  0
 27 18  1  0
  4  5  1  0
 22 21  1  0
  6  5  2  0
 17 18  1  0
 18 19  2  0
 21 20  2  0
 19 20  1  0
M  RAD  8   5   2   6   2   7   2   8   2  13   3  14   3  15   2  17   3
M  CHG  2   1   1  11  -1
M  RAD  7  19   2  20   2  21   2  23   2  24   2  25   2  26   2
M  END
>  <_TriposChargeType>  (1) 
GASTEIGER

>  <SuCOS_score>  (1) 
0.2555131272925067

>  <Volume_score>  (1) 
0.40722277611609614

>  <Feature_score>  (1) 
0.1038034784689172

$$$$
