DOCK.F36.P5yjp/L1007_ligand.pdbt
     RDKit          3D

 31 35  0  0  0  0  0  0  0  0999 V2000
   -5.2850   42.0660   21.8390 C   0  0  0  0  0  3  0  0  0  0  0  0
   -5.7630   43.0680   22.7860 C   0  0  0  0  0  0  0  0  0  0  0  0
   -7.1580   43.2110   22.8960 C   0  0  0  0  0  3  0  0  0  0  0  0
   -7.7550   44.1100   23.7390 C   0  0  0  0  0  3  0  0  0  0  0  0
   -6.9600   44.9180   24.5200 C   0  0  0  0  0  0  0  0  0  0  0  0
   -7.5510   45.8370   25.3830 C   0  0  0  0  0  3  0  0  0  0  0  0
   -6.7540   46.6410   26.1580 C   0  0  0  0  0  3  0  0  0  0  0  0
   -5.3890   46.5030   26.0520 C   0  0  0  0  0  3  0  0  0  0  0  0
   -4.8020   45.6010   25.2050 C   0  0  0  0  0  3  0  0  0  0  0  0
   -5.5890   44.7770   24.4110 C   0  0  0  0  0  0  0  0  0  0  0  0
   -4.9910   43.8710   23.5610 C   0  0  0  0  0  3  0  0  0  0  0  0
   -3.8980   38.0390   23.2630 C   0  0  0  0  0  1  0  0  0  0  0  0
   -3.3290   39.4630   23.1690 C   0  0  2  0  0  0  0  0  0  0  0  0
   -4.2230   40.4330   23.7420 C   0  0  0  0  0  0  0  0  0  0  0  0
   -4.6050   40.6800   24.9020 O   0  0  0  0  0  0  0  0  0  0  0  0
   -4.4670   40.9630   22.4330 C   0  0  0  0  0  0  0  0  0  0  0  0
   -3.6510   40.0770   21.9080 C   0  0  0  0  0  0  0  0  0  0  0  0
   -3.2230   39.7980   20.6000 O   0  0  0  0  0  0  0  0  0  0  0  0
   -3.9260   39.4390   19.9640 H   0  0  0  0  0  0  0  0  0  0  0  0
   -1.9090   39.5090   23.5940 C   0  0  0  0  0  0  0  0  0  0  0  0
   -1.5480   38.7990   24.7150 C   0  0  0  0  0  3  0  0  0  0  0  0
   -0.2470   38.7830   25.1860 C   0  0  0  0  0  3  0  0  0  0  0  0
    0.7310   39.4890   24.5320 C   0  0  0  0  0  3  0  0  0  0  0  0
    0.3640   40.2000   23.4080 C   0  0  0  0  0  3  0  0  0  0  0  0
   -0.9400   40.2100   22.9450 C   0  0  0  0  0  3  0  0  0  0  0  0
   -6.4010   41.5980   21.0010 C   0  0  0  0  0  0  0  0  0  0  0  0
   -6.7730   40.2720   20.9800 C   0  0  0  0  0  3  0  0  0  0  0  0
   -7.7950   39.7930   20.2040 C   0  0  0  0  0  3  0  0  0  0  0  0
   -8.4920   40.6630   19.4060 C   0  0  0  0  0  3  0  0  0  0  0  0
   -8.1320   41.9950   19.4170 C   0  0  0  0  0  3  0  0  0  0  0  0
   -7.0990   42.4850   20.1990 C   0  0  0  0  0  3  0  0  0  0  0  0
 29 30  2  0
 29 28  1  0
 30 31  1  0
 19 18  1  0
 31 26  2  0
 28 27  2  0
 18 17  1  0
 27 26  1  0
 26  1  1  0
  1 16  1  0
  1  2  1  0
 17 16  2  0
 17 13  1  0
 16 14  1  0
  2  3  2  0
  2 11  1  0
  3  4  1  0
 25 24  2  0
 25 20  1  0
 13 12  1  6
 13 20  1  0
 13 14  1  0
 24 23  1  0
 11 10  2  0
 20 21  2  0
  4  5  2  0
 14 15  2  0
 10  5  1  0
 10  9  1  0
  5  6  1  0
 23 22  2  0
 21 22  1  0
  9  8  2  0
  6  7  2  0
  8  7  1  0
M  RAD  8   1   2   3   2   4   2   6   2   7   2   8   2   9   2  11   2
M  RAD  8  12   2  21   2  22   2  23   2  24   2  25   2  27   2  28   2
M  RAD  3  29   2  30   2  31   2
M  END
>  <_TriposChargeType>  (1) 
GASTEIGER

>  <SuCOS_score>  (1) 
0.312727723199861

>  <Volume_score>  (1) 
0.4203955364048172

>  <Feature_score>  (1) 
0.2050599099949047

$$$$
