DOCK.F36.P5yjp/L1005_ligand.pdbt
     RDKit          3D

 31 34  0  0  0  0  0  0  0  0999 V2000
   -4.5940   38.8270   21.9400 C   0  0  0  0  0  0  0  0  0  0  0  0
   -3.7070   39.4920   22.8150 C   0  0  0  0  0  0  0  0  0  0  0  0
   -2.5200   38.9000   22.7920 N   0  0  0  0  0  4  0  0  0  0  0  0
   -2.5970   37.8300   21.9080 C   0  0  0  0  0  0  0  0  0  0  0  0
   -1.6060   36.9220   21.6000 C   0  0  0  0  0  3  0  0  0  0  0  0
   -1.9310   35.8960   20.7030 C   0  0  0  0  0  3  0  0  0  0  0  0
   -3.1960   35.8310   20.1710 C   0  0  0  0  0  0  0  0  0  0  0  0
   -3.5310   34.8310   19.2850 F   0  0  0  0  0  0  0  0  0  0  0  0
   -4.1580   36.7660   20.5090 C   0  0  0  0  0  3  0  0  0  0  0  0
   -3.8750   37.7960   21.3920 C   0  0  0  0  0  0  0  0  0  0  0  0
   -4.1590   40.6380   23.6040 C   0  0  0  0  0  0  0  0  0  0  0  0
   -4.1720   41.8250   23.1270 O   0  0  0  0  0  1  0  0  0  0  0  0
   -4.6070   40.5590   24.9020 O   0  0  0  0  0  0  0  0  0  0  0  0
   -5.9950   39.2090   21.7380 C   0  0  0  0  0  2  0  0  0  0  0  0
   -7.6560   40.1960   20.1230 C   0  0  0  0  0  0  0  0  0  0  0  0
   -8.6000   39.6060   20.7330 O   0  0  0  0  0  0  0  0  0  0  0  0
   -6.3390   40.0040   20.6170 N   0  0  0  0  0  0  0  0  0  0  0  0
   -5.5830   40.5300   20.0630 H   0  0  0  0  0  0  0  0  0  0  0  0
   -9.1950   41.0400   18.4030 C   0  0  0  0  0  1  0  0  0  0  0  0
   -7.9260   40.9960   19.0150 O   0  0  0  0  0  0  0  0  0  0  0  0
   -1.3230   39.2060   23.5560 C   0  0  0  0  0  2  0  0  0  0  0  0
   -0.2550   39.6880   22.7030 C   0  0  0  0  0  0  0  0  0  0  0  0
   -0.5370   40.4180   21.5580 C   0  0  0  0  0  3  0  0  0  0  0  0
    0.4080   41.0040   20.7470 C   0  0  0  0  0  3  0  0  0  0  0  0
    1.7250   40.8390   21.1220 C   0  0  0  0  0  3  0  0  0  0  0  0
    2.0620   40.1310   22.2310 C   0  0  0  0  0  0  0  0  0  0  0  0
    3.3890   39.9640   22.5150 C   0  0  0  0  0  3  0  0  0  0  0  0
    3.7960   39.2080   23.6080 C   0  0  0  0  0  3  0  0  0  0  0  0
    2.8120   38.6270   24.4010 C   0  0  0  0  0  3  0  0  0  0  0  0
    1.4730   38.7910   24.1210 C   0  0  0  0  0  3  0  0  0  0  0  0
    1.0740   39.5410   23.0440 C   0  0  0  0  0  0  0  0  0  0  0  0
 19 20  1  0
 20 15  1  0
  8  7  1  0
 18 17  1  0
 15 17  1  0
 15 16  2  0
  7  9  1  0
  7  6  2  0
  9 10  2  0
 17 14  1  0
  6  5  1  0
 24 25  1  0
 24 23  2  0
 25 26  2  0
 10  4  1  0
 10  1  1  0
 23 22  1  0
  5  4  2  0
 14  1  1  0
  4  3  1  0
  1  2  2  0
 26 27  1  0
 26 31  1  0
 27 28  2  0
 22 31  2  0
 22 21  1  0
  3  2  1  0
  3 21  1  0
  2 11  1  0
 31 30  1  0
 12 11  1  0
 11 13  2  0
 28 29  1  0
 30 29  2  0
M  RAD  8   5   2   6   2   9   2  14   3  19   2  21   3  23   2  24   2
M  CHG  2   3   1  12  -1
M  RAD  5  25   2  27   2  28   2  29   2  30   2
M  END
>  <_TriposChargeType>  (1) 
GASTEIGER

>  <SuCOS_score>  (1) 
0.360728666817933

>  <Volume_score>  (1) 
0.47596950613191913

>  <Feature_score>  (1) 
0.24548782750394685

$$$$
