DOCK.F36.P5yjp/L1012_ligand.pdbt
     RDKit          3D

 30 32  0  0  0  0  0  0  0  0999 V2000
   -4.4710   40.6860   21.6580 N   0  0  0  0  0  0  0  0  0  0  0  0
   -4.1910   40.7370   20.6470 H   0  0  0  0  0  0  0  0  0  0  0  0
   -6.5900   43.8840   23.3570 C   0  0  0  0  0  0  0  0  0  0  0  0
   -5.3490   43.5570   23.8600 C   0  0  0  0  0  3  0  0  0  0  0  0
   -4.6530   42.4970   23.2890 C   0  0  0  0  0  3  0  0  0  0  0  0
   -5.1590   41.7670   22.2440 C   0  0  0  0  0  0  0  0  0  0  0  0
   -6.4000   42.1100   21.7570 C   0  0  0  0  0  0  0  0  0  0  0  0
   -7.1250   43.1540   22.2940 C   0  0  0  0  0  3  0  0  0  0  0  0
   -7.0810   41.2040   20.4260 S   0  0  2  0  0  6  0  0  0  0  0  0
   -7.8000   39.6820   21.0170 C   0  0  0  0  0  1  0  0  0  0  0  0
   -6.0060   40.8000   19.4330 O   0  0  0  0  0  0  0  0  0  0  0  0
   -8.1710   41.9690   19.7430 O   0  0  0  0  0  0  0  0  0  0  0  0
   -7.3480   44.9890   23.9310 C   0  0  0  0  0  0  0  0  0  0  0  0
   -7.9890   45.7810   23.2000 O   0  0  0  0  0  0  0  0  0  0  0  0
   -6.5960   46.2000   25.9010 C   0  0  0  0  0  1  0  0  0  0  0  0
   -7.3670   45.1750   25.2950 O   0  0  0  0  0  0  0  0  0  0  0  0
   -4.0860   39.3000   22.5600 S   0  0  2  0  0  6  0  0  0  0  0  0
   -5.1550   39.0120   23.5770 O   0  0  0  0  0  0  0  0  0  0  0  0
   -2.8250   39.5630   23.3490 O   0  0  0  0  0  0  0  0  0  0  0  0
   -3.9180   37.8460   21.5960 C   0  0  0  0  0  0  0  0  0  0  0  0
   -5.1150   36.6850   21.2720 S   0  0  0  0  0  0  0  0  0  0  0  0
   -4.2120   35.6120   20.3010 C   0  0  0  0  0  0  0  0  0  0  0  0
   -4.5190   34.4080   19.6510 C   0  0  0  0  0  3  0  0  0  0  0  0
   -3.5510   33.7430   18.9120 C   0  0  0  0  0  3  0  0  0  0  0  0
   -2.3210   34.3450   18.8760 C   0  0  0  0  0  0  0  0  0  0  0  0
   -1.3560   33.6960   18.1480 F   0  0  0  0  0  0  0  0  0  0  0  0
   -2.0000   35.5150   19.4990 C   0  0  0  0  0  3  0  0  0  0  0  0
   -2.9810   36.2000   20.2540 C   0  0  0  0  0  0  0  0  0  0  0  0
   -2.8260   37.3630   20.9300 C   0  0  0  0  0  0  0  0  0  0  0  0
   -1.5330   38.1710   21.0010 C   0  0  0  0  0  1  0  0  0  0  0  0
 26 25  1  0
 25 24  2  0
 25 27  1  0
 24 23  1  0
 11  9  2  0
 27 28  2  0
 23 22  2  0
 12  9  2  0
 28 22  1  0
 28 29  1  0
 22 21  1  0
  9 10  1  1
  9  7  1  0
  2  1  1  0
 29 30  1  0
 29 20  2  0
 21 20  1  0
 20 17  1  0
  1  6  1  0
 17  1  1  6
  7  6  2  0
  7  8  1  0
  6  5  1  0
  8  3  2  0
 17 19  2  0
 17 18  2  0
 14 13  2  0
  5  4  2  0
  3  4  1  0
  3 13  1  0
 13 16  1  0
 16 15  1  0
M  RAD  8   4   2   5   2   8   2  10   2  15   2  23   2  24   2  27   2
M  RAD  1  30   2
M  END
>  <_TriposChargeType>  (1) 
GASTEIGER

>  <SuCOS_score>  (1) 
0.272546740156991

>  <Volume_score>  (1) 
0.44481272787537285

>  <Feature_score>  (1) 
0.10028075243860916

$$$$
