DOCK.F36.P5yjp/L1017_ligand.pdbt
     RDKit          3D

 31 34  0  0  0  0  0  0  0  0999 V2000
   -2.1560   38.0470   21.0770 C   0  0  0  0  0  0  0  0  0  0  0  0
   -3.2100   38.7690   21.5820 C   0  0  0  0  0  0  0  0  0  0  0  0
   -4.3620   38.1190   21.4630 N   0  0  0  0  0  4  0  0  0  0  0  0
   -4.1020   36.9520   20.8730 C   0  0  0  0  0  0  0  0  0  0  0  0
   -4.8710   35.8630   20.4710 C   0  0  0  0  0  3  0  0  0  0  0  0
   -4.3940   34.7410   19.8610 C   0  0  0  0  0  3  0  0  0  0  0  0
   -3.0190   34.6640   19.6070 C   0  0  0  0  0  0  0  0  0  0  0  0
   -2.5120   33.5910   18.9890 F   0  0  0  0  0  0  0  0  0  0  0  0
   -2.2190   35.7230   19.9970 C   0  0  0  0  0  3  0  0  0  0  0  0
   -2.7180   36.8490   20.6140 C   0  0  0  0  0  0  0  0  0  0  0  0
   -2.9810   40.1040   22.2340 C   0  0  0  0  0  0  0  0  0  0  0  0
   -2.6710   41.0670   21.5050 O   0  0  0  0  0  1  0  0  0  0  0  0
   -3.0720   40.3380   23.5810 O   0  0  0  0  0  0  0  0  0  0  0  0
   -0.8220   38.5000   20.7190 C   0  0  0  0  0  2  0  0  0  0  0  0
   -0.6000   39.8000   20.2000 N   0  0  0  0  0  0  0  0  0  0  0  0
   -1.2940   40.5150   20.1590 H   0  0  0  0  0  0  0  0  0  0  0  0
    0.6460   40.1880   22.7470 C   0  0  0  0  0  1  0  0  0  0  0  0
    0.8580   40.3530   20.9990 S   0  0  2  0  0  6  0  0  0  0  0  0
    1.2410   41.7010   20.6000 O   0  0  0  0  0  0  0  0  0  0  0  0
    1.9900   39.3740   20.5960 O   0  0  0  0  0  0  0  0  0  0  0  0
   -5.6300   38.5200   22.0140 C   0  0  0  0  0  2  0  0  0  0  0  0
   -6.2510   39.6400   21.3020 C   0  0  0  0  0  0  0  0  0  0  0  0
   -6.6070   39.6010   20.0010 C   0  0  0  0  0  3  0  0  0  0  0  0
   -7.1570   40.6830   19.3630 C   0  0  0  0  0  3  0  0  0  0  0  0
   -7.3660   41.8680   20.0430 C   0  0  0  0  0  3  0  0  0  0  0  0
   -6.9910   41.9090   21.3990 C   0  0  0  0  0  0  0  0  0  0  0  0
   -7.1990   43.0800   22.0940 C   0  0  0  0  0  3  0  0  0  0  0  0
   -6.8520   43.1480   23.4200 C   0  0  0  0  0  3  0  0  0  0  0  0
   -6.3060   42.0770   24.0750 C   0  0  0  0  0  3  0  0  0  0  0  0
   -6.1220   40.9400   23.3660 C   0  0  0  0  0  3  0  0  0  0  0  0
   -6.4530   40.8130   21.9920 C   0  0  0  0  0  0  0  0  0  0  0  0
  8  7  1  0
 24 23  2  0
 24 25  1  0
  7  6  2  0
  7  9  1  0
  6  5  1  0
  9 10  2  0
 23 22  1  0
 25 26  2  0
 16 15  1  0
 15 14  1  0
 15 18  1  0
  5  4  2  0
 20 18  2  0
 19 18  2  0
 10  4  1  0
 10  1  1  0
 14  1  1  0
  4  3  1  0
 18 17  1  1
  1  2  2  0
 22 31  2  0
 22 21  1  0
 26 31  1  0
 26 27  1  0
  3  2  1  0
  3 21  1  0
 12 11  1  0
  2 11  1  0
 31 30  1  0
 27 28  2  0
 11 13  2  0
 30 29  2  0
 28 29  1  0
M  RAD  8   5   2   6   2   9   2  14   3  17   2  21   3  23   2  24   2
M  CHG  2   3   1  12  -1
M  RAD  5  25   2  27   2  28   2  29   2  30   2
M  END
>  <_TriposChargeType>  (1) 
GASTEIGER

>  <SuCOS_score>  (1) 
0.2737587832273184

>  <Volume_score>  (1) 
0.5085625897690863

>  <Feature_score>  (1) 
0.038954976685550445

$$$$
