DOCK.F36.P5yjp/L1011_ligand.pdbt
     RDKit          3D

 30 33  0  0  0  0  0  0  0  0999 V2000
   -2.5240   36.5750   22.1650 C   0  0  0  0  0  0  0  0  0  0  0  0
   -2.2180   37.8710   22.5630 C   0  0  0  0  0  0  0  0  0  0  0  0
   -1.3280   37.7900   23.6010 N   0  0  0  0  0  4  0  0  0  0  0  0
   -1.0600   36.4980   23.8680 C   0  0  0  0  0  0  0  0  0  0  0  0
   -0.2450   35.8540   24.7830 C   0  0  0  0  0  3  0  0  0  0  0  0
   -0.1390   34.4790   24.8480 C   0  0  0  0  0  3  0  0  0  0  0  0
   -0.8930   33.7460   23.9510 C   0  0  0  0  0  0  0  0  0  0  0  0
   -0.8010   32.3950   24.0090 F   0  0  0  0  0  0  0  0  0  0  0  0
   -1.7030   34.3680   23.0400 C   0  0  0  0  0  3  0  0  0  0  0  0
   -1.7930   35.7440   22.9900 C   0  0  0  0  0  0  0  0  0  0  0  0
   -2.7540   39.0380   21.8890 C   0  0  0  0  0  0  0  0  0  0  0  0
   -3.5970   39.7950   22.4700 O   0  0  0  0  0  1  0  0  0  0  0  0
   -2.4000   39.4010   20.6000 O   0  0  0  0  0  0  0  0  0  0  0  0
   -3.4160   36.1340   21.0640 C   0  0  0  0  0  2  0  0  0  0  0  0
   -2.1370   34.2010   17.9780 C   0  0  0  0  0  1  0  0  0  0  0  0
   -3.0090   34.5580   19.0920 N   0  0  0  0  0  0  0  0  0  0  0  0
   -4.1780   33.7560   19.2860 C   0  0  0  0  0  1  0  0  0  0  0  0
   -2.6590   35.6560   19.8980 C   0  0  0  0  0  0  0  0  0  0  0  0
   -1.5980   36.3090   19.6150 O   0  0  0  0  0  0  0  0  0  0  0  0
   -0.8420   38.9590   24.2980 C   0  0  0  0  0  2  0  0  0  0  0  0
    0.6010   39.1520   24.0070 C   0  0  0  0  0  0  0  0  0  0  0  0
    1.5540   38.5620   24.8330 C   0  0  0  0  0  3  0  0  0  0  0  0
    2.9040   38.6210   24.5190 C   0  0  0  0  0  3  0  0  0  0  0  0
    3.3010   39.2700   23.3800 C   0  0  0  0  0  3  0  0  0  0  0  0
    2.4080   39.8710   22.5290 C   0  0  0  0  0  0  0  0  0  0  0  0
    2.8720   40.5620   21.4030 C   0  0  0  0  0  3  0  0  0  0  0  0
    1.9380   41.1920   20.6090 C   0  0  0  0  0  3  0  0  0  0  0  0
    0.6000   41.1660   20.8770 C   0  0  0  0  0  3  0  0  0  0  0  0
    0.1850   40.4560   22.0210 C   0  0  0  0  0  3  0  0  0  0  0  0
    1.0590   39.8050   22.8560 C   0  0  0  0  0  0  0  0  0  0  0  0
 15 16  1  0
 16 17  1  0
 16 18  1  0
 19 18  2  0
 18 14  1  0
 13 11  2  0
 27 28  2  0
 27 26  1  0
 28 29  1  0
 14  1  1  0
 26 25  2  0
 11 12  1  0
 11  2  1  0
 29 30  2  0
  1  2  2  0
  1 10  1  0
 25 30  1  0
 25 24  1  0
  2  3  1  0
 30 21  1  0
 10  9  1  0
 10  4  2  0
  9  7  2  0
 24 23  2  0
  3  4  1  0
  3 20  1  0
  4  5  1  0
  7  8  1  0
  7  6  1  0
 21 20  1  0
 21 22  2  0
 23 22  1  0
  5  6  2  0
M  RAD  8   5   2   6   2   9   2  14   3  15   2  17   2  20   3  22   2
M  CHG  2   3   1  12  -1
M  RAD  6  23   2  24   2  26   2  27   2  28   2  29   2
M  END
>  <_TriposChargeType>  (1) 
GASTEIGER

>  <SuCOS_score>  (1) 
0.2858679877674992

>  <Volume_score>  (1) 
0.4205752212389381

>  <Feature_score>  (1) 
0.15116075429606038

$$$$
