DOCK.F36.P5yjp/L1016_ligand.pdbt
     RDKit          3D

 29 32  0  0  0  0  0  0  0  0999 V2000
   -2.4480   36.4300   21.8310 C   0  0  0  0  0  0  0  0  0  0  0  0
   -2.1630   37.6940   22.3710 C   0  0  0  0  0  0  0  0  0  0  0  0
   -1.3330   37.5690   23.3850 N   0  0  0  0  0  4  0  0  0  0  0  0
   -1.0720   36.1820   23.5130 C   0  0  0  0  0  0  0  0  0  0  0  0
   -0.2950   35.4660   24.3760 C   0  0  0  0  0  3  0  0  0  0  0  0
   -0.1870   34.1060   24.3090 C   0  0  0  0  0  3  0  0  0  0  0  0
   -0.8890   33.4270   23.3340 C   0  0  0  0  0  3  0  0  0  0  0  0
   -1.6830   34.1010   22.4460 C   0  0  0  0  0  3  0  0  0  0  0  0
   -1.7610   35.4970   22.5550 C   0  0  0  0  0  0  0  0  0  0  0  0
   -2.7320   38.9230   21.8320 C   0  0  0  0  0  0  0  0  0  0  0  0
   -3.5950   39.6050   22.4200 O   0  0  0  0  0  1  0  0  0  0  0  0
   -2.3150   39.4000   20.6000 O   0  0  0  0  0  0  0  0  0  0  0  0
   -3.3360   36.1180   20.6900 C   0  0  0  0  0  2  0  0  0  0  0  0
   -2.2070   33.9840   17.6730 C   0  0  0  0  0  1  0  0  0  0  0  0
   -2.9730   34.4690   18.7960 N   0  0  0  0  0  0  0  0  0  0  0  0
   -4.1850   33.8050   19.1800 C   0  0  0  0  0  1  0  0  0  0  0  0
   -2.5540   35.6050   19.5290 C   0  0  0  0  0  0  0  0  0  0  0  0
   -1.5000   36.2200   19.2130 O   0  0  0  0  0  0  0  0  0  0  0  0
   -0.6370   38.4400   24.2510 C   0  0  0  0  0  2  0  0  0  0  0  0
    0.8210   38.7070   23.9540 C   0  0  0  0  0  0  0  0  0  0  0  0
    1.7650   38.1480   24.7770 C   0  0  0  0  0  3  0  0  0  0  0  0
    3.2260   38.8000   24.2000 S   0  0  0  0  0  0  0  0  0  0  0  0
    2.6290   39.7620   22.9310 C   0  0  0  0  0  0  0  0  0  0  0  0
    3.2480   40.5680   21.9650 C   0  0  0  0  0  3  0  0  0  0  0  0
    2.5080   41.2000   20.9960 C   0  0  0  0  0  3  0  0  0  0  0  0
    1.1560   40.9930   21.0430 C   0  0  0  0  0  0  0  0  0  0  0  0
    0.4020   41.6100   20.0940 F   0  0  0  0  0  0  0  0  0  0  0  0
    0.5390   40.2130   21.9770 C   0  0  0  0  0  3  0  0  0  0  0  0
    1.2760   39.5510   22.9890 C   0  0  0  0  0  0  0  0  0  0  0  0
 14 15  1  0
 15 16  1  0
 15 17  1  0
 18 17  2  0
 17 13  1  0
 27 26  1  0
 12 10  2  0
 13  1  1  0
 25 26  2  0
 25 24  1  0
 26 28  1  0
  1  2  2  0
  1  9  1  0
 10  2  1  0
 10 11  1  0
 24 23  2  0
 28 29  2  0
  2  3  1  0
  8  9  1  0
  8  7  2  0
  9  4  2  0
 23 29  1  0
 23 22  1  0
 29 20  1  0
  7  6  1  0
  3  4  1  0
  3 19  1  0
  4  5  1  0
 20 19  1  0
 20 21  2  0
 22 21  1  0
  6  5  2  0
M  RAD  8   5   2   6   2   7   2   8   2  13   3  14   2  16   2  19   3
M  CHG  2   3   1  11  -1
M  RAD  4  21   2  24   2  25   2  28   2
M  END
>  <_TriposChargeType>  (1) 
GASTEIGER

>  <SuCOS_score>  (1) 
0.268414447193429

>  <Volume_score>  (1) 
0.41222639840813624

>  <Feature_score>  (1) 
0.12460249597872178

$$$$
