DOCK.F36.P5yjp/L1015_ligand.pdbt
     RDKit          3D

 32 35  0  0  0  0  0  0  0  0999 V2000
   -1.9860   36.9830   22.6700 N   0  0  0  0  0  0  0  0  0  0  0  0
   -2.7660   37.1300   21.9930 H   0  0  0  0  0  0  0  0  0  0  0  0
   -1.4300   35.6980   22.7920 C   0  0  0  0  0  0  0  0  0  0  0  0
   -0.7240   35.2260   23.8810 C   0  0  0  0  0  3  0  0  0  0  0  0
   -0.2050   33.9490   23.9740 C   0  0  0  0  0  3  0  0  0  0  0  0
   -0.3870   33.0750   22.9370 C   0  0  0  0  0  0  0  0  0  0  0  0
   -1.0900   33.5150   21.8350 C   0  0  0  0  0  3  0  0  0  0  0  0
   -1.5930   34.7670   21.7520 C   0  0  0  0  0  0  0  0  0  0  0  0
    0.1310   31.7050   22.9580 C   0  0  0  0  0  0  0  0  0  0  0  0
   -0.6980   30.6090   23.1110 C   0  0  0  0  0  3  0  0  0  0  0  0
   -0.1680   29.3260   23.1260 C   0  0  0  0  0  3  0  0  0  0  0  0
    1.1470   29.1560   22.9930 N   0  0  0  0  0  0  0  0  0  0  0  0
    1.9930   30.1930   22.8410 C   0  0  0  0  0  3  0  0  0  0  0  0
    1.4780   31.4620   22.8250 C   0  0  0  0  0  3  0  0  0  0  0  0
   -2.4740   35.2750   20.3350 S   0  0  1  0  0  6  0  0  0  0  0  0
   -2.0380   34.2010   18.9910 C   0  0  0  0  0  1  0  0  0  0  0  0
   -3.9490   35.1700   20.5940 O   0  0  0  0  0  0  0  0  0  0  0  0
   -2.1970   36.7150   20.0000 O   0  0  0  0  0  0  0  0  0  0  0  0
   -1.4240   38.2930   23.5920 S   0  0  2  0  0  6  0  0  0  0  0  0
   -1.6060   37.9540   25.0650 O   0  0  0  0  0  0  0  0  0  0  0  0
   -2.2760   39.5110   23.3520 O   0  0  0  0  0  0  0  0  0  0  0  0
   -0.0030   39.5070   20.9710 C   0  0  0  0  0  1  0  0  0  0  0  0
    0.8670   39.1760   22.1770 C   0  0  0  0  0  0  0  0  0  0  0  0
    0.2570   38.6610   23.2840 C   0  0  0  0  0  0  0  0  0  0  0  0
    1.5320   38.4350   24.3740 S   0  0  0  0  0  0  0  0  0  0  0  0
    2.8300   39.0010   23.4020 C   0  0  0  0  0  0  0  0  0  0  0  0
    4.2060   39.1240   23.6170 C   0  0  0  0  0  3  0  0  0  0  0  0
    5.0300   39.6240   22.6310 C   0  0  0  0  0  3  0  0  0  0  0  0
    4.3970   39.9770   21.4600 C   0  0  0  0  0  0  0  0  0  0  0  0
    5.1940   40.4740   20.4710 F   0  0  0  0  0  0  0  0  0  0  0  0
    3.0560   39.8640   21.2310 C   0  0  0  0  0  3  0  0  0  0  0  0
    2.2030   39.3520   22.2380 C   0  0  0  0  0  0  0  0  0  0  0  0
 15 16  1  6
 18 15  2  0
 15 17  2  0
 15  8  1  0
 30 29  1  0
 22 23  1  0
 31 29  1  0
 31 32  2  0
 29 28  2  0
  8  7  2  0
  8  3  1  0
  7  6  1  0
  2  1  1  0
 23 32  1  0
 23 24  2  0
 32 26  1  0
 28 27  1  0
  1  3  1  0
 19  1  1  6
  3  4  2  0
 14 13  2  0
 14  9  1  0
 13 12  1  0
  6  9  1  0
  6  5  2  0
  9 10  2  0
 12 11  2  0
 10 11  1  0
 24 19  1  0
 24 25  1  0
 21 19  2  0
 26 27  2  0
 26 25  1  0
 19 20  2  0
  4  5  1  0
M  RAD  8   4   2   5   2   7   2  10   2  11   2  13   2  14   2  16   2
M  RAD  4  22   2  27   2  28   2  31   2
M  END
>  <_TriposChargeType>  (1) 
GASTEIGER

>  <SuCOS_score>  (1) 
0.2570651378704249

>  <Volume_score>  (1) 
0.3642310677458699

>  <Feature_score>  (1) 
0.14989920799497994

$$$$
