DOCK.F36.P5yjp/L1013_ligand.pdbt
     RDKit          3D

 27 30  0  0  0  0  0  0  0  0999 V2000
   -4.1500   39.4340   21.5340 N   0  0  0  0  0  4  0  0  0  0  0  0
   -3.1560   40.3340   21.7810 C   0  0  0  0  0  0  0  0  0  0  0  0
   -1.9210   39.7310   21.7190 C   0  0  0  0  0  0  0  0  0  0  0  0
   -2.2230   38.3840   21.4110 C   0  0  0  0  0  0  0  0  0  0  0  0
   -1.4210   37.2850   21.1930 C   0  0  0  0  0  3  0  0  0  0  0  0
   -1.9670   36.0570   20.8760 C   0  0  0  0  0  3  0  0  0  0  0  0
   -3.3290   35.9240   20.7760 C   0  0  0  0  0  3  0  0  0  0  0  0
   -4.1450   37.0060   20.9890 C   0  0  0  0  0  3  0  0  0  0  0  0
   -3.5670   38.2500   21.3090 C   0  0  0  0  0  0  0  0  0  0  0  0
   -3.4610   41.7430   22.0360 C   0  0  0  0  0  0  0  0  0  0  0  0
   -2.9990   42.6000   21.1990 O   0  0  0  0  0  1  0  0  0  0  0  0
   -4.1980   42.2210   23.0960 O   0  0  0  0  0  0  0  0  0  0  0  0
   -5.5950   39.6350   21.5070 C   0  0  0  0  0  2  0  0  0  0  0  0
   -6.0360   40.2430   20.2000 C   0  0  0  0  0  2  0  0  0  0  0  0
   -7.0010   42.2620   20.8100 C   0  0  0  0  0  1  0  0  0  0  0  0
   -7.1770   40.9960   20.2660 O   0  0  0  0  0  0  0  0  0  0  0  0
   -0.5640   40.2810   21.8390 C   0  0  0  0  0  2  0  0  0  0  0  0
    0.4230   39.7440   22.7150 C   0  0  0  0  0  0  0  0  0  0  0  0
    0.0720   39.2670   23.9950 C   0  0  0  0  0  3  0  0  0  0  0  0
    0.9570   38.7990   24.9110 C   0  0  0  0  0  3  0  0  0  0  0  0
    2.2900   38.7680   24.6240 C   0  0  0  0  0  3  0  0  0  0  0  0
    2.7050   39.2180   23.3980 C   0  0  0  0  0  0  0  0  0  0  0  0
    4.0600   39.2020   23.0940 C   0  0  0  0  0  3  0  0  0  0  0  0
    4.5400   39.6510   21.8760 C   0  0  0  0  0  3  0  0  0  0  0  0
    3.6370   40.1160   20.9760 C   0  0  0  0  0  3  0  0  0  0  0  0
    2.3030   40.1260   21.2890 C   0  0  0  0  0  3  0  0  0  0  0  0
    1.7710   39.6940   22.4750 C   0  0  0  0  0  0  0  0  0  0  0  0
 14 16  1  0
 14 13  1  0
 16 15  1  0
  7  6  2  0
  7  8  1  0
  6  5  1  0
 25 26  1  0
 25 24  2  0
  8  9  2  0
  5  4  2  0
 11 10  1  0
 26 27  2  0
  9  4  1  0
  9  1  1  0
  4  3  1  0
 13  1  1  0
  1  2  1  0
  3  2  2  0
  3 17  1  0
  2 10  1  0
 17 18  1  0
 24 23  1  0
 10 12  2  0
 27 18  1  0
 27 22  1  0
 18 19  2  0
 23 22  2  0
 22 21  1  0
 19 20  1  0
 21 20  2  0
M  RAD  8   5   2   6   2   7   2   8   2  13   3  14   3  15   2  17   3
M  CHG  2   1   1  11  -1
M  RAD  7  19   2  20   2  21   2  23   2  24   2  25   2  26   2
M  END
>  <_TriposChargeType>  (1) 
GASTEIGER

>  <SuCOS_score>  (1) 
0.41414777734411135

>  <Volume_score>  (1) 
0.5285603800685007

>  <Feature_score>  (1) 
0.29973517461972193

$$$$
