DOCK.F10.P5yjp/L1003_ligand.pdbt
     RDKit          3D

 32 35  0  0  0  0  0  0  0  0999 V2000
   -3.0030   40.8840   22.1480 N   0  0  0  0  0  0  0  0  0  0  0  0
   -2.5060   41.6660   21.6190 H   0  0  0  0  0  0  0  0  0  0  0  0
   -4.1520   41.2380   22.8520 C   0  0  0  0  0  0  0  0  0  0  0  0
   -4.3080   41.0010   24.2100 C   0  0  0  0  0  3  0  0  0  0  0  0
   -5.4630   41.3540   24.8880 C   0  0  0  0  0  3  0  0  0  0  0  0
   -6.5090   41.9590   24.2280 C   0  0  0  0  0  0  0  0  0  0  0  0
   -6.3720   42.2020   22.8840 C   0  0  0  0  0  3  0  0  0  0  0  0
   -5.2090   41.8450   22.2090 C   0  0  0  0  0  0  0  0  0  0  0  0
   -7.7460   42.3530   24.8840 C   0  0  0  0  0  0  0  0  0  0  0  0
   -8.1190   43.6830   24.9940 C   0  0  0  0  0  3  0  0  0  0  0  0
   -9.2840   44.0890   25.6100 C   0  0  0  0  0  3  0  0  0  0  0  0
  -10.1030   43.1400   26.1330 N   0  0  0  0  0  0  0  0  0  0  0  0
   -9.7650   41.8480   26.0400 C   0  0  0  0  0  3  0  0  0  0  0  0
   -8.6060   41.4210   25.4290 C   0  0  0  0  0  3  0  0  0  0  0  0
   -5.1700   42.1430   20.7680 C   0  0  2  0  0  0  0  0  0  0  0  0
   -4.1980   43.0350   20.4100 F   0  0  0  0  0  0  0  0  0  0  0  0
   -6.4400   42.5910   20.3750 F   0  0  0  0  0  0  0  0  0  0  0  0
   -4.9540   41.0000   20.0250 F   0  0  0  0  0  0  0  0  0  0  0  0
   -2.2870   39.3380   22.0220 S   0  0  1  0  0  6  0  0  0  0  0  0
   -3.0220   38.3310   22.8770 O   0  0  0  0  0  0  0  0  0  0  0  0
   -2.4250   38.8020   20.6000 O   0  0  0  0  0  0  0  0  0  0  0  0
    0.4000   40.3360   20.3610 C   0  0  0  0  0  1  0  0  0  0  0  0
    0.5320   39.7350   21.7530 C   0  0  0  0  0  0  0  0  0  0  0  0
   -0.5850   39.3430   22.4150 C   0  0  0  0  0  0  0  0  0  0  0  0
    0.0380   38.7570   23.9050 S   0  0  0  0  0  0  0  0  0  0  0  0
    1.6950   39.0320   23.6350 C   0  0  0  0  0  0  0  0  0  0  0  0
    2.8300   38.8020   24.4130 C   0  0  0  0  0  3  0  0  0  0  0  0
    4.0840   39.1250   23.9410 C   0  0  0  0  0  3  0  0  0  0  0  0
    4.1150   39.6750   22.6760 C   0  0  0  0  0  0  0  0  0  0  0  0
    5.3540   40.0000   22.1990 F   0  0  0  0  0  0  0  0  0  0  0  0
    3.0090   39.9040   21.9070 C   0  0  0  0  0  3  0  0  0  0  0  0
    1.7240   39.5750   22.3860 C   0  0  0  0  0  0  0  0  0  0  0  0
 15 18  1  6
 22 23  1  0
 17 15  1  0
 16 15  1  0
 21 19  2  0
 15  8  1  0
  2  1  1  0
 23 32  1  0
 23 24  2  0
 31 32  2  0
 31 29  1  0
 19  1  1  6
 19 24  1  0
 19 20  2  0
  1  3  1  0
 30 29  1  0
  8  3  1  0
  8  7  2  0
 32 26  1  0
 24 25  1  0
 29 28  2  0
  3  4  2  0
  7  6  1  0
 26 25  1  0
 26 27  2  0
 28 27  1  0
  4  5  1  0
  6  9  1  0
  6  5  2  0
  9 10  2  0
  9 14  1  0
 10 11  1  0
 14 13  2  0
 11 12  2  0
 13 12  1  0
M  RAD  8   4   2   5   2   7   2  10   2  11   2  13   2  14   2  22   2
M  RAD  3  27   2  28   2  31   2
M  END
>  <_TriposChargeType>  (1) 
GASTEIGER

>  <SuCOS_score>  (1) 
0.3967154458890537

>  <Volume_score>  (1) 
0.45519832062755494

>  <Feature_score>  (1) 
0.33823257115055244

$$$$
