DOCK.F10.P5yjp/L1005_ligand.pdbt
     RDKit          3D

 31 34  0  0  0  0  0  0  0  0999 V2000
   -4.2180   39.1670   21.6900 C   0  0  0  0  0  0  0  0  0  0  0  0
   -3.1780   40.1160   21.7950 C   0  0  0  0  0  0  0  0  0  0  0  0
   -2.0090   39.5360   21.5570 N   0  0  0  0  0  4  0  0  0  0  0  0
   -2.2490   38.1920   21.2960 C   0  0  0  0  0  0  0  0  0  0  0  0
   -1.3190   37.2090   21.0290 C   0  0  0  0  0  3  0  0  0  0  0  0
   -1.7990   35.9060   20.8360 C   0  0  0  0  0  3  0  0  0  0  0  0
   -3.1470   35.6570   20.9150 C   0  0  0  0  0  0  0  0  0  0  0  0
   -3.6360   34.3840   20.7250 F   0  0  0  0  0  0  0  0  0  0  0  0
   -4.0440   36.6770   21.1850 C   0  0  0  0  0  3  0  0  0  0  0  0
   -3.6090   37.9780   21.3810 C   0  0  0  0  0  0  0  0  0  0  0  0
   -3.4700   41.5050   22.1520 C   0  0  0  0  0  0  0  0  0  0  0  0
   -4.0050   41.8170   23.2720 O   0  0  0  0  0  1  0  0  0  0  0  0
   -3.2050   42.5870   21.3460 O   0  0  0  0  0  0  0  0  0  0  0  0
   -5.6360   39.4680   21.9120 C   0  0  0  0  0  2  0  0  0  0  0  0
   -7.6540   40.4840   20.8000 C   0  0  0  0  0  0  0  0  0  0  0  0
   -8.3840   39.5670   21.2880 O   0  0  0  0  0  0  0  0  0  0  0  0
   -6.2680   40.4460   21.1050 N   0  0  0  0  0  0  0  0  0  0  0  0
   -5.7020   41.2480   20.6680 H   0  0  0  0  0  0  0  0  0  0  0  0
   -8.7990   41.2030   18.7480 C   0  0  0  0  0  1  0  0  0  0  0  0
   -8.2130   41.4780   20.0000 O   0  0  0  0  0  0  0  0  0  0  0  0
   -0.6730   40.1040   21.5980 C   0  0  0  0  0  2  0  0  0  0  0  0
    0.0530   39.6730   22.7760 C   0  0  0  0  0  0  0  0  0  0  0  0
   -0.6230   39.2210   23.9000 C   0  0  0  0  0  3  0  0  0  0  0  0
   -0.0220   38.6950   25.0200 C   0  0  0  0  0  3  0  0  0  0  0  0
    1.3550   38.6220   25.0000 C   0  0  0  0  0  3  0  0  0  0  0  0
    2.0710   39.0530   23.9290 C   0  0  0  0  0  0  0  0  0  0  0  0
    3.4360   38.9980   23.9980 C   0  0  0  0  0  3  0  0  0  0  0  0
    4.2220   39.4710   22.9540 C   0  0  0  0  0  3  0  0  0  0  0  0
    3.5790   40.0010   21.8400 C   0  0  0  0  0  3  0  0  0  0  0  0
    2.2040   40.0580   21.7640 C   0  0  0  0  0  3  0  0  0  0  0  0
    1.4300   39.5870   22.7950 C   0  0  0  0  0  0  0  0  0  0  0  0
 19 20  1  0
 20 15  1  0
 18 17  1  0
  8  7  1  0
 15 17  1  0
 15 16  2  0
  6  7  2  0
  6  5  1  0
  7  9  1  0
  5  4  2  0
 17 14  1  0
  9 10  2  0
  4 10  1  0
  4  3  1  0
 13 11  2  0
 10  1  1  0
  3 21  1  0
  3  2  1  0
 21 22  1  0
  1  2  2  0
  1 14  1  0
 30 29  1  0
 30 31  2  0
  2 11  1  0
 29 28  2  0
 11 12  1  0
 22 31  1  0
 22 23  2  0
 31 26  1  0
 28 27  1  0
 23 24  1  0
 26 27  2  0
 26 25  1  0
 25 24  2  0
M  RAD  8   5   2   6   2   9   2  14   3  19   2  21   3  23   2  24   2
M  CHG  2   3   1  12  -1
M  RAD  5  25   2  27   2  28   2  29   2  30   2
M  END
>  <_TriposChargeType>  (1) 
GASTEIGER

>  <SuCOS_score>  (1) 
0.3700015892150166

>  <Volume_score>  (1) 
0.5146392663794056

>  <Feature_score>  (1) 
0.22536391205062759

$$$$
