DOCK.F10.P5yjp/L1012_ligand.pdbt
     RDKit          3D

 30 32  0  0  0  0  0  0  0  0999 V2000
   -3.7230   41.3980   21.3560 N   0  0  0  0  0  0  0  0  0  0  0  0
   -3.3900   41.7290   20.4160 H   0  0  0  0  0  0  0  0  0  0  0  0
   -6.7300   43.5370   23.3520 C   0  0  0  0  0  0  0  0  0  0  0  0
   -5.4230   43.6680   23.7690 C   0  0  0  0  0  3  0  0  0  0  0  0
   -4.4330   42.9570   23.0990 C   0  0  0  0  0  3  0  0  0  0  0  0
   -4.7120   42.1300   22.0400 C   0  0  0  0  0  0  0  0  0  0  0  0
   -6.0240   42.0140   21.6410 C   0  0  0  0  0  0  0  0  0  0  0  0
   -7.0390   42.7010   22.2770 C   0  0  0  0  0  3  0  0  0  0  0  0
   -6.4240   40.9700   20.2970 S   0  0  2  0  0  6  0  0  0  0  0  0
   -7.9990   41.4330   19.6010 C   0  0  0  0  0  1  0  0  0  0  0  0
   -6.5750   39.5290   20.7500 O   0  0  0  0  0  0  0  0  0  0  0  0
   -5.4100   41.0760   19.2010 O   0  0  0  0  0  0  0  0  0  0  0  0
   -7.7940   44.2670   24.0310 C   0  0  0  0  0  0  0  0  0  0  0  0
   -8.5330   43.7000   24.8710 O   0  0  0  0  0  0  0  0  0  0  0  0
   -8.7990   46.4060   24.6020 C   0  0  0  0  0  1  0  0  0  0  0  0
   -8.0010   45.5990   23.7510 O   0  0  0  0  0  0  0  0  0  0  0  0
   -3.0600   39.9850   22.0230 S   0  0  2  0  0  6  0  0  0  0  0  0
   -3.4280   38.7820   21.2000 O   0  0  0  0  0  0  0  0  0  0  0  0
   -3.6680   39.7550   23.3870 O   0  0  0  0  0  0  0  0  0  0  0  0
   -1.3110   39.9970   22.1230 C   0  0  0  0  0  0  0  0  0  0  0  0
   -0.2340   40.9200   21.1880 S   0  0  0  0  0  0  0  0  0  0  0  0
    1.2440   40.3940   21.8560 C   0  0  0  0  0  0  0  0  0  0  0  0
    2.5860   40.7100   21.6000 C   0  0  0  0  0  3  0  0  0  0  0  0
    3.6010   40.1030   22.3260 C   0  0  0  0  0  3  0  0  0  0  0  0
    3.1910   39.2060   23.2760 C   0  0  0  0  0  0  0  0  0  0  0  0
    4.1860   38.6000   23.9990 F   0  0  0  0  0  0  0  0  0  0  0  0
    1.8930   38.8830   23.5420 C   0  0  0  0  0  3  0  0  0  0  0  0
    0.8520   39.4970   22.8080 C   0  0  0  0  0  0  0  0  0  0  0  0
   -0.4790   39.2880   22.9470 C   0  0  0  0  0  0  0  0  0  0  0  0
   -1.1170   38.3300   23.9490 C   0  0  0  0  0  1  0  0  0  0  0  0
 12  9  2  0
  9 10  1  6
  9 11  2  0
  9  7  1  0
  2  1  1  0
 21 22  1  0
 21 20  1  0
 18 17  2  0
 17  1  1  6
  1  6  1  0
 23 22  2  0
 23 24  1  0
  7  6  2  0
  7  8  1  0
 22 28  1  0
 17 20  1  0
 17 19  2  0
  6  5  1  0
 20 29  2  0
  8  3  2  0
 24 25  2  0
 28 29  1  0
 28 27  2  0
 29 30  1  0
  5  4  2  0
 25 27  1  0
 25 26  1  0
  3  4  1  0
  3 13  1  0
 16 13  1  0
 16 15  1  0
 13 14  2  0
M  RAD  8   4   2   5   2   8   2  10   2  15   2  23   2  24   2  27   2
M  RAD  1  30   2
M  END
>  <_TriposChargeType>  (1) 
GASTEIGER

>  <SuCOS_score>  (1) 
0.3645352299722276

>  <Volume_score>  (1) 
0.46193790741354546

>  <Feature_score>  (1) 
0.26713255253090973

$$$$
