DOCK.F10.P1t31/L1009_ligand.pdbt
     RDKit          3D

 34 38  0  0  0  0  0  0  0  0999 V2000
   -1.0320   38.1970   24.6440 C   0  0  0  0  0  3  0  0  0  0  0  0
   -0.5550   39.3380   21.6910 C   0  0  0  0  0  1  0  0  0  0  0  0
    0.4550   39.1550   22.7770 C   0  0  0  0  0  0  0  0  0  0  0  0
    0.2560   38.6600   24.0470 C   0  0  0  0  0  0  0  0  0  0  0  0
    1.4690   38.6920   24.6260 N   0  0  0  0  0  0  0  0  0  0  0  0
    2.4010   39.1700   23.8010 C   0  0  0  0  0  0  0  0  0  0  0  0
    3.7760   39.4000   23.9150 C   0  0  0  0  0  3  0  0  0  0  0  0
    4.4500   39.9210   22.8310 C   0  0  0  0  0  3  0  0  0  0  0  0
    3.8350   40.2270   21.6400 C   0  0  0  0  0  0  0  0  0  0  0  0
    4.5590   40.7410   20.6000 F   0  0  0  0  0  0  0  0  0  0  0  0
    2.4830   40.0000   21.5310 C   0  0  0  0  0  3  0  0  0  0  0  0
    1.7840   39.4760   22.6090 C   0  0  0  0  0  0  0  0  0  0  0  0
    1.7050   38.3850   25.6110 H   0  0  0  0  0  0  0  0  0  0  0  0
   -1.3050   36.7670   24.3910 C   0  0  0  0  0  0  0  0  0  0  0  0
   -2.1090   36.1900   23.5280 C   0  0  0  0  0  0  0  0  0  0  0  0
   -2.9490   36.8290   22.5840 O   0  0  0  0  0  0  0  0  0  0  0  0
   -2.0370   34.7190   23.6550 C   0  0  0  0  0  3  0  0  0  0  0  0
   -1.0960   34.4640   24.6510 O   0  0  0  0  0  0  0  0  0  0  0  0
   -0.6380   35.6720   25.1300 C   0  0  0  0  0  0  0  0  0  0  0  0
    0.2120   35.7810   26.0500 O   0  0  0  0  0  0  0  0  0  0  0  0
   -3.9370   36.5790   22.6650 H   0  0  0  0  0  0  0  0  0  0  0  0
   -1.5290   34.0640   22.3830 C   0  0  0  0  0  2  0  0  0  0  0  0
   -2.5910   34.1180   21.3460 C   0  0  0  0  0  0  0  0  0  0  0  0
   -3.7980   33.4870   21.5460 C   0  0  0  0  0  3  0  0  0  0  0  0
   -4.8100   33.5150   20.5980 C   0  0  0  0  0  3  0  0  0  0  0  0
   -4.6110   34.1990   19.4010 C   0  0  0  0  0  3  0  0  0  0  0  0
   -3.4040   34.8230   19.2150 C   0  0  0  0  0  3  0  0  0  0  0  0
   -2.4000   34.7940   20.1580 C   0  0  0  0  0  3  0  0  0  0  0  0
   -1.1330   38.5620   26.0680 C   0  0  0  0  0  0  0  0  0  0  0  0
   -0.2540   39.4630   26.6680 C   0  0  0  0  0  3  0  0  0  0  0  0
   -0.4000   39.7580   28.0050 C   0  0  0  0  0  3  0  0  0  0  0  0
   -1.3940   39.1880   28.7720 C   0  0  0  0  0  3  0  0  0  0  0  0
   -2.2770   38.2870   28.1810 C   0  0  0  0  0  3  0  0  0  0  0  0
   -2.1170   38.0080   26.8590 C   0  0  0  0  0  3  0  0  0  0  0  0
 27 26  2  0
 27 28  1  0
 26 25  1  0
 28 23  2  0
 25 24  2  0
 10  9  1  0
 23 24  1  0
 23 22  1  0
 11  9  1  0
 11 12  2  0
  9  8  2  0
  2  3  1  0
 22 17  1  0
 16 21  1  0
 16 15  1  0
 12  3  1  0
 12  6  1  0
  3  4  2  0
  8  7  1  0
 15 17  1  0
 15 14  2  0
 17 18  1  0
  6  7  2  0
  6  5  1  0
  4  5  1  0
  4  1  1  0
 14  1  1  0
 14 19  1  0
  5 13  1  0
  1 29  1  0
 18 19  1  0
 19 20  2  0
 29 30  2  0
 29 34  1  0
 30 31  1  0
 34 33  2  0
 31 32  2  0
 33 32  1  0
M  RAD  8   1   2   2   2   7   2   8   2  11   2  17   2  22   3  24   2
M  RAD  8  25   2  26   2  27   2  28   2  30   2  31   2  32   2  33   2
M  RAD  1  34   2
M  END
>  <_TriposChargeType>  (1) 
GASTEIGER

>  <SuCOS_score>  (1) 
0.24372281764758072

>  <Volume_score>  (1) 
0.3395287089279787

>  <Feature_score>  (1) 
0.14791692636718273

$$$$
