DOCK.F10.P1t31/L1001_ligand.pdbt
     RDKit          3D

 32 35  0  0  0  0  0  0  0  0999 V2000
   -4.9640   37.5570   21.6790 C   0  0  0  0  0  0  0  0  0  0  0  0
   -3.8750   38.4300   21.8270 C   0  0  0  0  0  0  0  0  0  0  0  0
   -2.8240   37.9400   21.1630 N   0  0  0  0  0  4  0  0  0  0  0  0
   -3.2110   36.7840   20.6000 C   0  0  0  0  0  0  0  0  0  0  0  0
   -2.4940   35.8750   19.7990 C   0  0  0  0  0  3  0  0  0  0  0  0
   -3.0770   34.7430   19.3170 C   0  0  0  0  0  3  0  0  0  0  0  0
   -4.3920   34.4610   19.6050 C   0  0  0  0  0  0  0  0  0  0  0  0
   -5.0110   33.3490   19.1480 F   0  0  0  0  0  0  0  0  0  0  0  0
   -5.0860   35.3660   20.3950 C   0  0  0  0  0  3  0  0  0  0  0  0
   -4.5190   36.5300   20.9020 C   0  0  0  0  0  0  0  0  0  0  0  0
   -3.9400   39.6620   22.5970 C   0  0  0  0  0  0  0  0  0  0  0  0
   -3.2330   39.8140   23.6000 O   0  0  0  0  0  1  0  0  0  0  0  0
   -4.7990   40.6590   22.2010 O   0  0  0  0  0  0  0  0  0  0  0  0
   -6.2720   37.7780   22.2670 C   0  0  0  0  0  2  0  0  0  0  0  0
   -8.0970   37.1960   20.7520 C   0  0  0  0  0  0  0  0  0  0  0  0
   -7.8590   38.2010   20.0270 O   0  0  0  0  0  0  0  0  0  0  0  0
   -7.3450   36.9130   21.9250 N   0  0  0  0  0  0  0  0  0  0  0  0
   -7.7040   35.7250   22.6920 C   0  0  0  0  0  1  0  0  0  0  0  0
   -9.1220   36.3550   20.3830 O   0  0  0  0  0  0  0  0  0  0  0  0
   -8.2850   34.9450   18.6660 C   0  0  0  0  0  1  0  0  0  0  0  0
   -9.3690   35.9180   19.0640 C   0  0  0  0  0  2  0  0  0  0  0  0
   -1.5090   38.4940   21.0380 C   0  0  0  0  0  2  0  0  0  0  0  0
   -0.6890   38.3200   22.2590 C   0  0  0  0  0  0  0  0  0  0  0  0
   -1.0860   37.5860   23.3580 C   0  0  0  0  0  3  0  0  0  0  0  0
   -0.2790   37.4500   24.4860 C   0  0  0  0  0  3  0  0  0  0  0  0
    0.9560   38.0840   24.4720 C   0  0  0  0  0  3  0  0  0  0  0  0
    1.3930   38.8290   23.3950 C   0  0  0  0  0  0  0  0  0  0  0  0
    2.6200   39.4500   23.3990 C   0  0  0  0  0  3  0  0  0  0  0  0
    3.0200   40.1820   22.3100 C   0  0  0  0  0  3  0  0  0  0  0  0
    2.2330   40.3230   21.1920 C   0  0  0  0  0  3  0  0  0  0  0  0
    1.0010   39.6850   21.2150 C   0  0  0  0  0  3  0  0  0  0  0  0
    0.5450   38.9370   22.2810 C   0  0  0  0  0  0  0  0  0  0  0  0
 20 21  1  0
 21 19  1  0
  8  7  1  0
  6  7  2  0
  6  5  1  0
  7  9  1  0
  5  4  2  0
 16 15  2  0
 19 15  1  0
  9 10  2  0
  4 10  1  0
  4  3  1  0
 15 17  1  0
 10  1  1  0
 22  3  1  0
 22 23  1  0
  3  2  1  0
 30 31  1  0
 30 29  2  0
 31 32  2  0
  1  2  2  0
  1 14  1  0
  2 11  1  0
 17 14  1  0
 17 18  1  0
 13 11  2  0
 23 32  1  0
 23 24  2  0
 32 27  1  0
 29 28  1  0
 11 12  1  0
 24 25  1  0
 27 28  2  0
 27 26  1  0
 26 25  2  0
M  RAD  8   5   2   6   2   9   2  14   3  18   2  20   2  21   3  22   3
M  CHG  2   3   1  12  -1
M  RAD  7  24   2  25   2  26   2  28   2  29   2  30   2  31   2
M  END
>  <_TriposChargeType>  (1) 
GASTEIGER

>  <SuCOS_score>  (1) 
0.2330607434071531

>  <Volume_score>  (1) 
0.39193530519552455

>  <Feature_score>  (1) 
0.07418618161878164

$$$$
