DOCK.F10.P1t31/L1015_ligand.pdbt
     RDKit          3D

 32 35  0  0  0  0  0  0  0  0999 V2000
   -2.7820   37.6630   23.1740 N   0  0  0  0  0  0  0  0  0  0  0  0
   -3.7320   37.6360   22.7450 H   0  0  0  0  0  0  0  0  0  0  0  0
   -2.0620   36.4630   23.2990 C   0  0  0  0  0  0  0  0  0  0  0  0
   -1.2860   36.0980   24.3820 C   0  0  0  0  0  3  0  0  0  0  0  0
   -0.6040   34.9000   24.4780 C   0  0  0  0  0  3  0  0  0  0  0  0
   -0.6840   34.0000   23.4510 C   0  0  0  0  0  0  0  0  0  0  0  0
   -1.4520   34.3340   22.3550 C   0  0  0  0  0  3  0  0  0  0  0  0
   -2.1150   35.5080   22.2690 C   0  0  0  0  0  0  0  0  0  0  0  0
    0.0090   32.7090   23.4760 C   0  0  0  0  0  0  0  0  0  0  0  0
    1.1910   32.5240   24.1700 C   0  0  0  0  0  3  0  0  0  0  0  0
    1.8170   31.2850   24.1700 C   0  0  0  0  0  3  0  0  0  0  0  0
    1.2730   30.2740   23.4940 N   0  0  0  0  0  0  0  0  0  0  0  0
    0.1250   30.4060   22.8040 C   0  0  0  0  0  3  0  0  0  0  0  0
   -0.4990   31.6250   22.8000 C   0  0  0  0  0  3  0  0  0  0  0  0
   -3.0730   35.8830   20.8600 S   0  0  1  0  0  6  0  0  0  0  0  0
   -2.3980   35.0010   19.4760 C   0  0  0  0  0  1  0  0  0  0  0  0
   -4.4910   35.4440   21.0830 O   0  0  0  0  0  0  0  0  0  0  0  0
   -3.1150   37.3640   20.6000 O   0  0  0  0  0  0  0  0  0  0  0  0
   -2.1470   39.1470   23.7020 S   0  0  2  0  0  6  0  0  0  0  0  0
   -2.2530   39.1990   25.2200 O   0  0  0  0  0  0  0  0  0  0  0  0
   -2.9910   40.2890   23.2010 O   0  0  0  0  0  0  0  0  0  0  0  0
    0.5680   38.8000   25.3950 C   0  0  0  0  0  1  0  0  0  0  0  0
    0.6750   39.2280   23.9370 C   0  0  0  0  0  0  0  0  0  0  0  0
   -0.4810   39.3740   23.2270 C   0  0  0  0  0  0  0  0  0  0  0  0
    0.0510   39.8480   21.6910 S   0  0  0  0  0  0  0  0  0  0  0  0
    1.7450   39.8550   21.9760 C   0  0  0  0  0  0  0  0  0  0  0  0
    2.8510   40.1480   21.1720 C   0  0  0  0  0  3  0  0  0  0  0  0
    4.1300   40.0680   21.6800 C   0  0  0  0  0  3  0  0  0  0  0  0
    4.2150   39.6890   23.0020 C   0  0  0  0  0  0  0  0  0  0  0  0
    5.4710   39.6040   23.5240 F   0  0  0  0  0  0  0  0  0  0  0  0
    3.1470   39.4000   23.8020 C   0  0  0  0  0  3  0  0  0  0  0  0
    1.8310   39.4790   23.2880 C   0  0  0  0  0  0  0  0  0  0  0  0
 15 16  1  6
 18 15  2  0
 15 17  2  0
 15  8  1  0
 27 28  2  0
 27 26  1  0
 28 29  1  0
 25 26  1  0
 25 24  1  0
 26 32  2  0
  8  7  2  0
  8  3  1  0
  7  6  1  0
  2  1  1  0
 14 13  2  0
 14  9  1  0
 13 12  1  0
 29 30  1  0
 29 31  2  0
  1  3  1  0
 19  1  1  6
 21 19  2  0
 24 19  1  0
 24 23  2  0
 32 31  1  0
 32 23  1  0
  3  4  2  0
  6  9  1  0
  6  5  2  0
  9 10  2  0
 12 11  2  0
 19 20  2  0
 23 22  1  0
 10 11  1  0
  4  5  1  0
M  RAD  8   4   2   5   2   7   2  10   2  11   2  13   2  14   2  16   2
M  RAD  4  22   2  27   2  28   2  31   2
M  END
>  <_TriposChargeType>  (1) 
GASTEIGER

>  <SuCOS_score>  (1) 
0.2821674062520896

>  <Volume_score>  (1) 
0.38016346366246967

>  <Feature_score>  (1) 
0.1841713488417095

$$$$
