DOCK.F36.P4k2y/L1001_ligand.pdbt
     RDKit          3D

 32 35  0  0  0  0  0  0  0  0999 V2000
   -4.1970   38.3860   21.4410 C   0  0  0  0  0  0  0  0  0  0  0  0
   -3.0030   39.1170   21.5470 C   0  0  0  0  0  0  0  0  0  0  0  0
   -1.9800   38.3490   21.1630 N   0  0  0  0  0  4  0  0  0  0  0  0
   -2.4860   37.1540   20.8190 C   0  0  0  0  0  0  0  0  0  0  0  0
   -1.8420   35.9930   20.3480 C   0  0  0  0  0  3  0  0  0  0  0  0
   -2.5450   34.8660   20.0480 C   0  0  0  0  0  3  0  0  0  0  0  0
   -3.9120   34.8380   20.2000 C   0  0  0  0  0  0  0  0  0  0  0  0
   -4.6490   33.7410   19.9150 F   0  0  0  0  0  0  0  0  0  0  0  0
   -4.5310   35.9880   20.6660 C   0  0  0  0  0  3  0  0  0  0  0  0
   -3.8420   37.1540   20.9800 C   0  0  0  0  0  0  0  0  0  0  0  0
   -2.9520   40.4940   22.0100 C   0  0  0  0  0  0  0  0  0  0  0  0
   -3.4000   40.8010   23.1220 O   0  0  0  0  0  1  0  0  0  0  0  0
   -2.4000   41.4580   21.2000 O   0  0  0  0  0  0  0  0  0  0  0  0
   -5.5070   38.9110   21.7730 C   0  0  0  0  0  2  0  0  0  0  0  0
   -6.4010   40.3630   20.0250 C   0  0  0  0  0  0  0  0  0  0  0  0
   -5.5630   41.2660   20.3010 O   0  0  0  0  0  0  0  0  0  0  0  0
   -6.4540   39.1340   20.7380 N   0  0  0  0  0  0  0  0  0  0  0  0
   -7.4610   38.1580   20.3360 C   0  0  0  0  0  1  0  0  0  0  0  0
   -7.2860   40.5900   18.9960 O   0  0  0  0  0  0  0  0  0  0  0  0
   -9.5470   41.0010   18.4010 C   0  0  0  0  0  1  0  0  0  0  0  0
   -8.2880   41.5820   19.0000 C   0  0  0  0  0  2  0  0  0  0  0  0
   -0.5870   38.6780   21.1080 C   0  0  0  0  0  2  0  0  0  0  0  0
    0.0940   38.5360   22.4150 C   0  0  0  0  0  0  0  0  0  0  0  0
   -0.5160   38.0530   23.5550 C   0  0  0  0  0  3  0  0  0  0  0  0
    0.1670   37.9360   24.7640 C   0  0  0  0  0  3  0  0  0  0  0  0
    1.4990   38.3270   24.7910 C   0  0  0  0  0  3  0  0  0  0  0  0
    2.1480   38.8170   23.6750 C   0  0  0  0  0  0  0  0  0  0  0  0
    3.4680   39.1990   23.7200 C   0  0  0  0  0  3  0  0  0  0  0  0
    4.0790   39.6800   22.5900 C   0  0  0  0  0  3  0  0  0  0  0  0
    3.4180   39.7990   21.3920 C   0  0  0  0  0  3  0  0  0  0  0  0
    2.0860   39.4060   21.3760 C   0  0  0  0  0  3  0  0  0  0  0  0
    1.4190   38.9150   22.4790 C   0  0  0  0  0  0  0  0  0  0  0  0
 20 21  1  0
 19 21  1  0
 19 15  1  0
  8  7  1  0
 15 16  2  0
 15 17  1  0
  6  7  2  0
  6  5  1  0
  7  9  1  0
 18 17  1  0
  5  4  2  0
  9 10  2  0
 17 14  1  0
  4 10  1  0
  4  3  1  0
 10  1  1  0
 22  3  1  0
 22 23  1  0
  3  2  1  0
 13 11  2  0
 31 30  1  0
 31 32  2  0
 30 29  2  0
  1  2  2  0
  1 14  1  0
  2 11  1  0
 11 12  1  0
 23 32  1  0
 23 24  2  0
 32 27  1  0
 29 28  1  0
 24 25  1  0
 27 28  2  0
 27 26  1  0
 25 26  2  0
M  RAD  8   5   2   6   2   9   2  14   3  18   2  20   2  21   3  22   3
M  CHG  2   3   1  12  -1
M  RAD  7  24   2  25   2  26   2  28   2  29   2  30   2  31   2
M  END
>  <_TriposChargeType>  (1) 
GASTEIGER

>  <SuCOS_score>  (1) 
0.3260847756547144

>  <Volume_score>  (1) 
0.4978455419290686

>  <Feature_score>  (1) 
0.1543240093803602

$$$$
