DOCK.F36.P4k2y/L1007_ligand.pdbt
     RDKit          3D

 31 35  0  0  0  0  0  0  0  0999 V2000
   -2.8520   37.6490   22.2010 C   0  0  0  0  0  3  0  0  0  0  0  0
   -1.4710   38.1050   22.3210 C   0  0  0  0  0  0  0  0  0  0  0  0
   -0.7740   37.6960   23.4710 C   0  0  0  0  0  3  0  0  0  0  0  0
    0.5260   38.0450   23.7250 C   0  0  0  0  0  3  0  0  0  0  0  0
    1.1900   38.8360   22.8150 C   0  0  0  0  0  0  0  0  0  0  0  0
    2.5120   39.2010   23.0570 C   0  0  0  0  0  3  0  0  0  0  0  0
    3.1690   39.9900   22.1470 C   0  0  0  0  0  3  0  0  0  0  0  0
    2.4890   40.3920   21.0210 C   0  0  0  0  0  3  0  0  0  0  0  0
    1.1890   40.0360   20.7770 C   0  0  0  0  0  3  0  0  0  0  0  0
    0.5040   39.2380   21.6840 C   0  0  0  0  0  0  0  0  0  0  0  0
   -0.8050   38.8840   21.4320 C   0  0  0  0  0  3  0  0  0  0  0  0
   -5.0760   41.4990   22.8330 C   0  0  0  0  0  1  0  0  0  0  0  0
   -5.2390   40.2230   21.9920 C   0  0  2  0  0  0  0  0  0  0  0  0
   -5.1180   39.0360   22.7950 C   0  0  0  0  0  0  0  0  0  0  0  0
   -5.8180   38.5190   23.6870 O   0  0  0  0  0  0  0  0  0  0  0  0
   -3.8820   38.7320   22.1380 C   0  0  0  0  0  0  0  0  0  0  0  0
   -3.9910   39.8160   21.4030 C   0  0  0  0  0  0  0  0  0  0  0  0
   -3.2000   40.4000   20.4000 O   0  0  0  0  0  0  0  0  0  0  0  0
   -2.2980   40.7590   20.6910 H   0  0  0  0  0  0  0  0  0  0  0  0
   -6.4080   40.3180   21.0860 C   0  0  0  0  0  0  0  0  0  0  0  0
   -6.6220   41.5070   20.4280 C   0  0  0  0  0  3  0  0  0  0  0  0
   -7.6870   41.6870   19.5640 C   0  0  0  0  0  3  0  0  0  0  0  0
   -8.5720   40.6630   19.3390 C   0  0  0  0  0  3  0  0  0  0  0  0
   -8.3550   39.4720   20.0000 C   0  0  0  0  0  3  0  0  0  0  0  0
   -7.2860   39.3020   20.8630 C   0  0  0  0  0  3  0  0  0  0  0  0
   -2.9580   36.6580   21.1170 C   0  0  0  0  0  0  0  0  0  0  0  0
   -4.1650   36.0780   20.7940 C   0  0  0  0  0  3  0  0  0  0  0  0
   -4.3060   35.1420   19.8040 C   0  0  0  0  0  3  0  0  0  0  0  0
   -3.2020   34.7560   19.0890 C   0  0  0  0  0  3  0  0  0  0  0  0
   -1.9850   35.3280   19.4000 C   0  0  0  0  0  3  0  0  0  0  0  0
   -1.8380   36.2740   20.4010 C   0  0  0  0  0  3  0  0  0  0  0  0
 29 30  2  0
 29 28  1  0
 23 22  1  0
 23 24  2  0
 30 31  1  0
 22 21  2  0
 28 27  2  0
 24 25  1  0
 18 19  1  0
 18 17  1  0
 31 26  2  0
 21 20  1  0
  9  8  2  0
  9 10  1  0
 27 26  1  0
 25 20  2  0
  8  7  1  0
 20 13  1  0
 26  1  1  0
 17 13  1  0
 17 16  2  0
 11 10  2  0
 11  2  1  0
 10  5  1  0
 13 14  1  0
 13 12  1  1
 16  1  1  0
 16 14  1  0
  7  6  2  0
  1  2  1  0
  2  3  2  0
 14 15  2  0
  5  6  1  0
  5  4  2  0
  3  4  1  0
M  RAD  8   1   2   3   2   4   2   6   2   7   2   8   2   9   2  11   2
M  RAD  8  12   2  21   2  22   2  23   2  24   2  25   2  27   2  28   2
M  RAD  3  29   2  30   2  31   2
M  END
>  <_TriposChargeType>  (1) 
GASTEIGER

>  <SuCOS_score>  (1) 
0.27179233778798434

>  <Volume_score>  (1) 
0.48569218870843

>  <Feature_score>  (1) 
0.057892486867538645

$$$$
