DOCK.F36.P4k2y/L1013_ligand.pdbt
     RDKit          3D

 27 30  0  0  0  0  0  0  0  0999 V2000
   -4.3280   39.1640   21.6620 N   0  0  0  0  0  4  0  0  0  0  0  0
   -3.3710   40.1050   21.9020 C   0  0  0  0  0  0  0  0  0  0  0  0
   -2.1110   39.5740   21.7490 C   0  0  0  0  0  0  0  0  0  0  0  0
   -2.3580   38.2280   21.3920 C   0  0  0  0  0  0  0  0  0  0  0  0
   -1.5110   37.1870   21.0810 C   0  0  0  0  0  3  0  0  0  0  0  0
   -2.0080   35.9460   20.7330 C   0  0  0  0  0  3  0  0  0  0  0  0
   -3.3640   35.7430   20.6950 C   0  0  0  0  0  3  0  0  0  0  0  0
   -4.2240   36.7680   21.0010 C   0  0  0  0  0  3  0  0  0  0  0  0
   -3.6970   38.0260   21.3510 C   0  0  0  0  0  0  0  0  0  0  0  0
   -3.7360   41.4820   22.2400 C   0  0  0  0  0  0  0  0  0  0  0  0
   -3.4030   42.3960   21.4020 O   0  0  0  0  0  1  0  0  0  0  0  0
   -4.4030   41.8750   23.3790 O   0  0  0  0  0  0  0  0  0  0  0  0
   -5.7810   39.2860   21.7180 C   0  0  0  0  0  2  0  0  0  0  0  0
   -6.3250   39.8900   20.4480 C   0  0  0  0  0  2  0  0  0  0  0  0
   -6.8280   42.1500   20.5970 C   0  0  0  0  0  1  0  0  0  0  0  0
   -7.2930   40.8420   20.6270 O   0  0  0  0  0  0  0  0  0  0  0  0
   -0.7810   40.1920   21.8270 C   0  0  0  0  0  2  0  0  0  0  0  0
    0.2840   39.6620   22.6120 C   0  0  0  0  0  0  0  0  0  0  0  0
    0.0280   39.0350   23.8500 C   0  0  0  0  0  3  0  0  0  0  0  0
    0.9870   38.5600   24.6830 C   0  0  0  0  0  3  0  0  0  0  0  0
    2.3040   38.6710   24.3490 C   0  0  0  0  0  3  0  0  0  0  0  0
    2.6290   39.2700   23.1600 C   0  0  0  0  0  0  0  0  0  0  0  0
    3.9660   39.4000   22.8090 C   0  0  0  0  0  3  0  0  0  0  0  0
    4.3550   40.0030   21.6250 C   0  0  0  0  0  3  0  0  0  0  0  0
    3.3790   40.4720   20.8070 C   0  0  0  0  0  3  0  0  0  0  0  0
    2.0640   40.3380   21.1660 C   0  0  0  0  0  3  0  0  0  0  0  0
    1.6200   39.7510   22.3210 C   0  0  0  0  0  0  0  0  0  0  0  0
 14 16  1  0
 14 13  1  0
 15 16  1  0
  7  6  2  0
  7  8  1  0
  6  5  1  0
 25 26  1  0
 25 24  2  0
  8  9  2  0
  5  4  2  0
 26 27  2  0
  9  4  1  0
  9  1  1  0
  4  3  1  0
 11 10  1  0
 24 23  1  0
  1 13  1  0
  1  2  1  0
  3 17  1  0
  3  2  2  0
 17 18  1  0
  2 10  1  0
 10 12  2  0
 27 18  1  0
 27 22  1  0
 18 19  2  0
 23 22  2  0
 22 21  1  0
 19 20  1  0
 21 20  2  0
M  RAD  8   5   2   6   2   7   2   8   2  13   3  14   3  15   2  17   3
M  CHG  2   1   1  11  -1
M  RAD  7  19   2  20   2  21   2  23   2  24   2  25   2  26   2
M  END
>  <_TriposChargeType>  (1) 
GASTEIGER

>  <SuCOS_score>  (1) 
0.39657976642630377

>  <Volume_score>  (1) 
0.5233675836924097

>  <Feature_score>  (1) 
0.2697919491601979

$$$$
