DOCK.F10.P4k5z/L1003_ligand.pdbt
     RDKit          3D

 32 35  0  0  0  0  0  0  0  0999 V2000
   -3.3900   39.5920   22.9320 N   0  0  0  0  0  0  0  0  0  0  0  0
   -3.1210   40.4760   23.4650 H   0  0  0  0  0  0  0  0  0  0  0  0
   -4.5600   39.6500   22.1770 C   0  0  0  0  0  0  0  0  0  0  0  0
   -5.4350   38.5810   22.0580 C   0  0  0  0  0  3  0  0  0  0  0  0
   -6.5880   38.6590   21.2930 C   0  0  0  0  0  3  0  0  0  0  0  0
   -6.9060   39.8150   20.6180 C   0  0  0  0  0  0  0  0  0  0  0  0
   -6.0510   40.8830   20.7240 C   0  0  0  0  0  3  0  0  0  0  0  0
   -4.8950   40.7980   21.4930 C   0  0  0  0  0  0  0  0  0  0  0  0
   -8.1020   39.9580   19.8000 C   0  0  0  0  0  0  0  0  0  0  0  0
   -8.2970   41.0620   18.9860 C   0  0  0  0  0  3  0  0  0  0  0  0
   -9.4180   41.2280   18.2000 C   0  0  0  0  0  3  0  0  0  0  0  0
  -10.3730   40.2620   18.2250 N   0  0  0  0  0  0  0  0  0  0  0  0
  -10.2080   39.1850   19.0030 C   0  0  0  0  0  3  0  0  0  0  0  0
   -9.0950   39.0000   19.7960 C   0  0  0  0  0  3  0  0  0  0  0  0
   -4.0450   42.0000   21.5320 C   0  0  2  0  0  0  0  0  0  0  0  0
   -4.1090   42.7640   20.4000 F   0  0  0  0  0  0  0  0  0  0  0  0
   -2.7270   41.6000   21.8000 F   0  0  0  0  0  0  0  0  0  0  0  0
   -4.3860   42.8210   22.5870 F   0  0  0  0  0  0  0  0  0  0  0  0
   -2.3220   38.2700   23.1100 S   0  0  1  0  0  6  0  0  0  0  0  0
   -2.4920   37.6180   24.4640 O   0  0  0  0  0  0  0  0  0  0  0  0
   -2.6680   37.1690   22.1130 O   0  0  0  0  0  0  0  0  0  0  0  0
    0.3910   37.9970   24.9910 C   0  0  0  0  0  1  0  0  0  0  0  0
    0.4730   38.6130   23.6020 C   0  0  0  0  0  0  0  0  0  0  0  0
   -0.6510   38.7050   22.8490 C   0  0  0  0  0  0  0  0  0  0  0  0
   -0.0840   39.4340   21.4000 S   0  0  0  0  0  0  0  0  0  0  0  0
    1.5610   39.5960   21.8020 C   0  0  0  0  0  0  0  0  0  0  0  0
    2.6570   40.1120   21.1090 C   0  0  0  0  0  3  0  0  0  0  0  0
    3.9110   40.1220   21.6820 C   0  0  0  0  0  3  0  0  0  0  0  0
    3.9810   39.5970   22.9560 C   0  0  0  0  0  0  0  0  0  0  0  0
    5.2210   39.6030   23.5320 F   0  0  0  0  0  0  0  0  0  0  0  0
    2.9140   39.0900   23.6420 C   0  0  0  0  0  3  0  0  0  0  0  0
    1.6300   39.0770   23.0600 C   0  0  0  0  0  0  0  0  0  0  0  0
 11 12  1  0
 11 10  2  0
 12 13  2  0
 10  9  1  0
 13 14  1  0
 14  9  2  0
  9  6  1  0
 15 16  1  6
  6  7  2  0
  6  5  1  0
  7  8  1  0
 27 28  2  0
 27 26  1  0
  5  4  2  0
 25 26  1  0
 25 24  1  0
  8 15  1  0
  8  3  2  0
 15 17  1  0
 15 18  1  0
 28 29  1  0
 26 32  2  0
  4  3  1  0
 21 19  2  0
  3  1  1  0
 24 19  1  0
 24 23  2  0
 19  1  1  1
  1  2  1  0
 29 30  1  0
 29 31  2  0
 32 23  1  0
 32 31  1  0
 19 20  2  0
 23 22  1  0
M  RAD  8   4   2   5   2   7   2  10   2  11   2  13   2  14   2  22   2
M  RAD  3  27   2  28   2  31   2
M  END
>  <_TriposChargeType>  (1) 
GASTEIGER

>  <SuCOS_score>  (1) 
0.32204180741157196

>  <Volume_score>  (1) 
0.4561598224195339

>  <Feature_score>  (1) 
0.18792379240360998

$$$$
