DOCK.F10.P4k5z/L1004_ligand.pdbt
     RDKit          3D

 33 36  0  0  0  0  0  0  0  0999 V2000
   -2.4940   38.7800   22.7440 C   0  0  0  0  0  3  0  0  0  0  0  0
   -0.0010   38.6930   23.3970 C   0  0  0  0  0  0  0  0  0  0  0  0
   -1.0840   39.0910   22.6240 C   0  0  0  0  0  0  0  0  0  0  0  0
   -0.5850   39.8470   21.6040 N   0  0  0  0  0  0  0  0  0  0  0  0
    0.7470   39.9540   21.6740 C   0  0  0  0  0  0  0  0  0  0  0  0
    1.6860   40.6010   20.8920 C   0  0  0  0  0  3  0  0  0  0  0  0
    3.0300   40.5540   21.1990 C   0  0  0  0  0  3  0  0  0  0  0  0
    3.4230   39.8440   22.3130 C   0  0  0  0  0  0  0  0  0  0  0  0
    4.7390   39.7790   22.6320 F   0  0  0  0  0  0  0  0  0  0  0  0
    2.4610   39.1990   23.0880 C   0  0  0  0  0  3  0  0  0  0  0  0
    1.1160   39.2240   22.8100 C   0  0  0  0  0  0  0  0  0  0  0  0
   -1.1380   40.3160   20.8230 H   0  0  0  0  0  0  0  0  0  0  0  0
    0.0000   36.4190   24.4860 C   0  0  0  0  0  1  0  0  0  0  0  0
   -0.1370   37.9150   24.6110 C   0  0  0  0  0  3  0  0  0  0  0  0
    1.0000   38.3100   25.6000 C   0  0  0  0  0  1  0  0  0  0  0  0
   -3.3740   40.0140   22.8430 C   0  0  0  0  0  0  0  0  0  0  0  0
   -3.3740   41.0930   22.0870 C   0  0  0  0  0  0  0  0  0  0  0  0
   -2.4920   41.2580   21.0040 O   0  0  0  0  0  0  0  0  0  0  0  0
   -4.3960   42.0740   22.5180 C   0  0  0  0  0  3  0  0  0  0  0  0
   -5.0090   41.4820   23.6600 N   0  0  0  0  0  0  0  0  0  0  0  0
   -4.4000   40.2220   23.8590 C   0  0  0  0  0  0  0  0  0  0  0  0
   -4.6580   39.3550   24.7620 O   0  0  0  0  0  0  0  0  0  0  0  0
   -2.8650   41.4440   20.0760 H   0  0  0  0  0  0  0  0  0  0  0  0
   -5.7640   41.9140   24.2310 H   0  0  0  0  0  0  0  0  0  0  0  0
   -5.3800   42.3970   21.4190 C   0  0  0  0  0  3  0  0  0  0  0  0
   -5.6960   41.1620   20.5970 C   0  0  0  0  0  1  0  0  0  0  0  0
   -6.6600   42.8720   22.0540 C   0  0  0  0  0  1  0  0  0  0  0  0
   -3.0630   37.7680   21.8560 C   0  0  0  0  0  0  0  0  0  0  0  0
   -2.3030   36.9580   21.0320 C   0  0  0  0  0  3  0  0  0  0  0  0
   -2.8760   35.9960   20.2220 C   0  0  0  0  0  3  0  0  0  0  0  0
   -4.2390   35.8000   20.2000 C   0  0  0  0  0  3  0  0  0  0  0  0
   -5.0040   36.6000   21.0150 C   0  0  0  0  0  3  0  0  0  0  0  0
   -4.4230   37.5500   21.8140 C   0  0  0  0  0  3  0  0  0  0  0  0
 23 18  1  0
 31 30  1  0
 31 32  2  0
 30 29  2  0
 26 25  1  0
 12  4  1  0
  6  7  2  0
  6  5  1  0
 18 17  1  0
 32 33  1  0
 29 28  1  0
  7  8  1  0
 25 27  1  0
 25 19  1  0
  4  5  1  0
  4  3  1  0
  5 11  2  0
 33 28  2  0
 28  1  1  0
 17 19  1  0
 17 16  2  0
  8  9  1  0
  8 10  2  0
 19 20  1  0
  3  1  1  0
  3  2  2  0
  1 16  1  0
 11 10  1  0
 11  2  1  0
 16 21  1  0
  2 14  1  0
 20 21  1  0
 20 24  1  0
 21 22  2  0
 13 14  1  0
 14 15  1  0
M  RAD  8   1   2   6   2   7   2  10   2  13   2  14   2  15   2  19   2
M  RAD  8  25   2  26   2  27   2  29   2  30   2  31   2  32   2  33   2
M  END
>  <_TriposChargeType>  (1) 
GASTEIGER

>  <SuCOS_score>  (1) 
0.2888027570994489

>  <Volume_score>  (1) 
0.49055352999668544

>  <Feature_score>  (1) 
0.08705198420221233

$$$$
