DOCK.F10.P4k5z/L1015_ligand.pdbt
     RDKit          3D

 32 35  0  0  0  0  0  0  0  0999 V2000
   -3.6180   41.0900   21.4000 N   0  0  0  0  0  0  0  0  0  0  0  0
   -3.3180   41.4240   20.4580 H   0  0  0  0  0  0  0  0  0  0  0  0
   -4.5940   41.8210   22.0980 C   0  0  0  0  0  0  0  0  0  0  0  0
   -4.3760   42.5760   23.2340 C   0  0  0  0  0  3  0  0  0  0  0  0
   -5.3580   43.2960   23.8860 C   0  0  0  0  0  3  0  0  0  0  0  0
   -6.6360   43.2810   23.3970 C   0  0  0  0  0  0  0  0  0  0  0  0
   -6.8870   42.5380   22.2620 C   0  0  0  0  0  3  0  0  0  0  0  0
   -5.9200   41.8350   21.6310 C   0  0  0  0  0  0  0  0  0  0  0  0
   -7.7330   44.0180   24.0290 C   0  0  0  0  0  0  0  0  0  0  0  0
   -7.9440   45.3650   23.7940 C   0  0  0  0  0  3  0  0  0  0  0  0
   -8.9950   46.0280   24.4120 C   0  0  0  0  0  3  0  0  0  0  0  0
   -9.8000   45.3590   25.2370 N   0  0  0  0  0  0  0  0  0  0  0  0
   -9.6330   44.0480   25.4970 C   0  0  0  0  0  3  0  0  0  0  0  0
   -8.5990   43.3870   24.8900 C   0  0  0  0  0  3  0  0  0  0  0  0
   -6.2880   40.9100   20.1990 S   0  0  1  0  0  6  0  0  0  0  0  0
   -7.7950   41.5370   19.5020 C   0  0  0  0  0  1  0  0  0  0  0  0
   -5.1790   41.0650   19.2000 O   0  0  0  0  0  0  0  0  0  0  0  0
   -6.3940   39.4410   20.5040 O   0  0  0  0  0  0  0  0  0  0  0  0
   -2.9180   39.6860   22.0490 S   0  0  2  0  0  6  0  0  0  0  0  0
   -3.3510   38.4980   21.2000 O   0  0  0  0  0  0  0  0  0  0  0  0
   -3.4610   39.4150   23.4270 O   0  0  0  0  0  0  0  0  0  0  0  0
   -0.8190   38.2820   24.0450 C   0  0  0  0  0  1  0  0  0  0  0  0
   -0.2760   39.1710   22.9340 C   0  0  0  0  0  0  0  0  0  0  0  0
   -1.1720   39.7630   22.0920 C   0  0  0  0  0  0  0  0  0  0  0  0
   -0.1970   40.6450   21.0260 S   0  0  0  0  0  0  0  0  0  0  0  0
    1.3460   40.2470   21.6700 C   0  0  0  0  0  0  0  0  0  0  0  0
    2.6510   40.6000   21.3170 C   0  0  0  0  0  3  0  0  0  0  0  0
    3.7270   40.1180   22.0310 C   0  0  0  0  0  3  0  0  0  0  0  0
    3.4090   39.2880   23.0840 C   0  0  0  0  0  0  0  0  0  0  0  0
    4.4600   38.8000   23.8040 F   0  0  0  0  0  0  0  0  0  0  0  0
    2.1410   38.9320   23.4430 C   0  0  0  0  0  3  0  0  0  0  0  0
    1.0320   39.4220   22.7150 C   0  0  0  0  0  0  0  0  0  0  0  0
 17 15  2  0
 15 16  1  6
 15 18  2  0
 15  8  1  0
  2  1  1  0
 25 26  1  0
 25 24  1  0
 20 19  2  0
 27 26  1  0
 27 28  2  0
 19  1  1  6
  1  3  1  0
  8  3  1  0
  8  7  2  0
 26 32  2  0
 28 29  1  0
 19 24  1  0
 19 21  2  0
 24 23  2  0
  3  4  2  0
  7  6  1  0
 32 23  1  0
 32 31  1  0
 23 22  1  0
 29 31  2  0
 29 30  1  0
  4  5  1  0
  6  5  2  0
  6  9  1  0
 10  9  2  0
 10 11  1  0
  9 14  1  0
 11 12  2  0
 14 13  2  0
 12 13  1  0
M  RAD  8   4   2   5   2   7   2  10   2  11   2  13   2  14   2  16   2
M  RAD  4  22   2  27   2  28   2  31   2
M  END
>  <_TriposChargeType>  (1) 
GASTEIGER

>  <SuCOS_score>  (1) 
0.36461095565204793

>  <Volume_score>  (1) 
0.47055573969727105

>  <Feature_score>  (1) 
0.25866617160682487

$$$$
