DOCK.F10.P4k5z/L1012_ligand.pdbt
     RDKit          3D

 30 32  0  0  0  0  0  0  0  0999 V2000
   -3.4980   41.1620   21.5330 N   0  0  0  0  0  0  0  0  0  0  0  0
   -3.1600   41.6620   20.6730 H   0  0  0  0  0  0  0  0  0  0  0  0
   -6.7110   42.7510   23.7130 C   0  0  0  0  0  0  0  0  0  0  0  0
   -5.4360   42.8480   24.2290 C   0  0  0  0  0  3  0  0  0  0  0  0
   -4.3770   42.3200   23.4980 C   0  0  0  0  0  3  0  0  0  0  0  0
   -4.5570   41.7080   22.2830 C   0  0  0  0  0  0  0  0  0  0  0  0
   -5.8390   41.6220   21.7870 C   0  0  0  0  0  0  0  0  0  0  0  0
   -6.9190   42.1320   22.4790 C   0  0  0  0  0  3  0  0  0  0  0  0
   -6.1120   40.8490   20.2440 S   0  0  2  0  0  6  0  0  0  0  0  0
   -7.6580   41.3960   19.5420 C   0  0  0  0  0  1  0  0  0  0  0  0
   -6.2340   39.3430   20.4010 O   0  0  0  0  0  0  0  0  0  0  0  0
   -5.0370   41.1920   19.2610 O   0  0  0  0  0  0  0  0  0  0  0  0
   -7.8460   43.2930   24.4520 C   0  0  0  0  0  0  0  0  0  0  0  0
   -8.8010   42.5580   24.8000 O   0  0  0  0  0  0  0  0  0  0  0  0
   -7.6000   45.6220   23.8000 C   0  0  0  0  0  1  0  0  0  0  0  0
   -7.8800   44.6300   24.7750 O   0  0  0  0  0  0  0  0  0  0  0  0
   -2.7560   39.7070   21.9960 S   0  0  2  0  0  6  0  0  0  0  0  0
   -3.0890   38.6060   21.0270 O   0  0  0  0  0  0  0  0  0  0  0  0
   -3.3200   39.2700   23.3270 O   0  0  0  0  0  0  0  0  0  0  0  0
   -1.0070   39.7880   22.0650 C   0  0  0  0  0  0  0  0  0  0  0  0
    0.0250   40.6330   21.0120 S   0  0  0  0  0  0  0  0  0  0  0  0
    1.5290   40.2370   21.7110 C   0  0  0  0  0  0  0  0  0  0  0  0
    2.8550   40.5650   21.3980 C   0  0  0  0  0  3  0  0  0  0  0  0
    3.9000   40.0810   22.1720 C   0  0  0  0  0  3  0  0  0  0  0  0
    3.5340   39.2860   23.2250 C   0  0  0  0  0  0  0  0  0  0  0  0
    4.5580   38.8010   23.9970 F   0  0  0  0  0  0  0  0  0  0  0  0
    2.2510   38.9530   23.5490 C   0  0  0  0  0  3  0  0  0  0  0  0
    1.1800   39.4430   22.7660 C   0  0  0  0  0  0  0  0  0  0  0  0
   -0.1410   39.2080   22.9500 C   0  0  0  0  0  0  0  0  0  0  0  0
   -0.7320   38.3500   24.0670 C   0  0  0  0  0  1  0  0  0  0  0  0
 12  9  2  0
  9 10  1  6
  9 11  2  0
  9  7  1  0
  2  1  1  0
 21 22  1  0
 21 20  1  0
 18 17  2  0
 23 22  2  0
 23 24  1  0
 17  1  1  6
  1  6  1  0
 22 28  1  0
  7  6  2  0
  7  8  1  0
 17 20  1  0
 17 19  2  0
 20 29  2  0
 24 25  2  0
  6  5  1  0
  8  3  2  0
 28 29  1  0
 28 27  2  0
 29 30  1  0
 25 27  1  0
 25 26  1  0
  5  4  2  0
  3  4  1  0
  3 13  1  0
 15 16  1  0
 13 16  1  0
 13 14  2  0
M  RAD  8   4   2   5   2   8   2  10   2  15   2  23   2  24   2  27   2
M  RAD  1  30   2
M  END
>  <_TriposChargeType>  (1) 
GASTEIGER

>  <SuCOS_score>  (1) 
0.39354775366981865

>  <Volume_score>  (1) 
0.48370345818141647

>  <Feature_score>  (1) 
0.3033920491582208

$$$$
