DOCK.F10.P4k5z/L1011_ligand.pdbt
     RDKit          3D

 30 33  0  0  0  0  0  0  0  0999 V2000
   -4.4620   38.9870   21.7830 C   0  0  0  0  0  0  0  0  0  0  0  0
   -3.3510   39.8220   21.7610 C   0  0  0  0  0  0  0  0  0  0  0  0
   -2.2680   39.0680   21.3950 N   0  0  0  0  0  4  0  0  0  0  0  0
   -2.6540   37.7960   21.1820 C   0  0  0  0  0  0  0  0  0  0  0  0
   -1.9930   36.6420   20.7940 C   0  0  0  0  0  3  0  0  0  0  0  0
   -2.6370   35.4310   20.6370 C   0  0  0  0  0  3  0  0  0  0  0  0
   -3.9970   35.4040   20.8860 C   0  0  0  0  0  0  0  0  0  0  0  0
   -4.6390   34.2190   20.7400 F   0  0  0  0  0  0  0  0  0  0  0  0
   -4.6640   36.5360   21.2700 C   0  0  0  0  0  3  0  0  0  0  0  0
   -4.0020   37.7370   21.4200 C   0  0  0  0  0  0  0  0  0  0  0  0
   -3.4420   41.2440   22.0350 C   0  0  0  0  0  0  0  0  0  0  0  0
   -3.0000   42.0970   21.2000 O   0  0  0  0  0  1  0  0  0  0  0  0
   -4.0000   41.7600   23.1930 O   0  0  0  0  0  0  0  0  0  0  0  0
   -5.8720   39.3330   22.0890 C   0  0  0  0  0  2  0  0  0  0  0  0
   -7.8130   41.0000   19.2000 C   0  0  0  0  0  1  0  0  0  0  0  0
   -7.0230   40.8930   20.4220 N   0  0  0  0  0  0  0  0  0  0  0  0
   -6.6780   42.1140   21.0820 C   0  0  0  0  0  1  0  0  0  0  0  0
   -6.6490   39.6150   20.8730 C   0  0  0  0  0  0  0  0  0  0  0  0
   -7.0000   38.5960   20.1880 O   0  0  0  0  0  0  0  0  0  0  0  0
   -0.9310   39.6120   21.3300 C   0  0  0  0  0  2  0  0  0  0  0  0
   -0.1730   39.2200   22.5460 C   0  0  0  0  0  0  0  0  0  0  0  0
   -0.8380   38.6000   23.6000 C   0  0  0  0  0  3  0  0  0  0  0  0
   -0.1400   38.1130   24.6960 C   0  0  0  0  0  3  0  0  0  0  0  0
    1.2230   38.2450   24.7360 C   0  0  0  0  0  3  0  0  0  0  0  0
    1.9320   38.8480   23.7270 C   0  0  0  0  0  0  0  0  0  0  0  0
    3.3190   39.0000   23.8420 C   0  0  0  0  0  3  0  0  0  0  0  0
    3.9770   39.6590   22.8260 C   0  0  0  0  0  3  0  0  0  0  0  0
    3.3350   40.1590   21.7300 C   0  0  0  0  0  3  0  0  0  0  0  0
    1.9390   39.9790   21.6630 C   0  0  0  0  0  3  0  0  0  0  0  0
    1.2200   39.3320   22.6370 C   0  0  0  0  0  0  0  0  0  0  0  0
 15 16  1  0
 19 18  2  0
 16 18  1  0
 16 17  1  0
  6  5  2  0
  6  7  1  0
  8  7  1  0
  5  4  1  0
 18 14  1  0
  7  9  2  0
  4  3  1  0
  4 10  2  0
 12 11  1  0
  9 10  1  0
 20  3  1  0
 20 21  1  0
  3  2  1  0
 10  1  1  0
 29 28  1  0
 29 30  2  0
 28 27  2  0
  2  1  2  0
  2 11  1  0
  1 14  1  0
 11 13  2  0
 21 30  1  0
 21 22  2  0
 30 25  1  0
 27 26  1  0
 22 23  1  0
 25 26  2  0
 25 24  1  0
 23 24  2  0
M  RAD  8   5   2   6   2   9   2  14   3  15   2  17   2  20   3  22   2
M  CHG  2   3   1  12  -1
M  RAD  6  23   2  24   2  26   2  27   2  28   2  29   2
M  END
>  <_TriposChargeType>  (1) 
GASTEIGER

>  <SuCOS_score>  (1) 
0.35623202912413526

>  <Volume_score>  (1) 
0.5218207932825103

>  <Feature_score>  (1) 
0.19064326496576023

$$$$
