DOCK.F10.P4k5z/L1016_ligand.pdbt
     RDKit          3D

 29 32  0  0  0  0  0  0  0  0999 V2000
   -4.7030   39.0770   21.6970 C   0  0  0  0  0  0  0  0  0  0  0  0
   -3.5100   39.8190   21.7010 C   0  0  0  0  0  0  0  0  0  0  0  0
   -2.4950   39.0310   21.4180 N   0  0  0  0  0  4  0  0  0  0  0  0
   -3.0400   37.7370   21.2270 C   0  0  0  0  0  0  0  0  0  0  0  0
   -2.4750   36.5350   20.9140 C   0  0  0  0  0  3  0  0  0  0  0  0
   -3.2120   35.3940   20.7720 C   0  0  0  0  0  3  0  0  0  0  0  0
   -4.5790   35.4530   20.9490 C   0  0  0  0  0  3  0  0  0  0  0  0
   -5.1920   36.6370   21.2640 C   0  0  0  0  0  3  0  0  0  0  0  0
   -4.3930   37.7810   21.4000 C   0  0  0  0  0  0  0  0  0  0  0  0
   -3.4780   41.2490   21.9800 C   0  0  0  0  0  0  0  0  0  0  0  0
   -3.0000   42.0970   21.2000 O   0  0  0  0  0  1  0  0  0  0  0  0
   -4.0000   41.7380   23.1660 O   0  0  0  0  0  0  0  0  0  0  0  0
   -6.0710   39.5710   21.9690 C   0  0  0  0  0  2  0  0  0  0  0  0
   -7.9320   41.1990   19.0000 C   0  0  0  0  0  1  0  0  0  0  0  0
   -7.1930   41.0390   20.2290 N   0  0  0  0  0  0  0  0  0  0  0  0
   -6.8000   42.1900   20.9880 C   0  0  0  0  0  1  0  0  0  0  0  0
   -6.8350   39.7530   20.7030 C   0  0  0  0  0  0  0  0  0  0  0  0
   -7.1550   38.7200   20.0560 O   0  0  0  0  0  0  0  0  0  0  0  0
   -1.1090   39.1860   21.2000 C   0  0  0  0  0  2  0  0  0  0  0  0
   -0.1820   38.9240   22.3650 C   0  0  0  0  0  0  0  0  0  0  0  0
   -0.7260   38.4760   23.5410 C   0  0  0  0  0  3  0  0  0  0  0  0
    0.6000   38.4530   24.6050 S   0  0  0  0  0  0  0  0  0  0  0  0
    1.8190   39.0030   23.5550 C   0  0  0  0  0  0  0  0  0  0  0  0
    3.1990   39.2000   23.7070 C   0  0  0  0  0  3  0  0  0  0  0  0
    3.9740   39.6050   22.6480 C   0  0  0  0  0  3  0  0  0  0  0  0
    3.3160   39.8000   21.4630 C   0  0  0  0  0  0  0  0  0  0  0  0
    4.0620   40.2030   20.4000 F   0  0  0  0  0  0  0  0  0  0  0  0
    1.9740   39.6140   21.3010 C   0  0  0  0  0  3  0  0  0  0  0  0
    1.1510   39.1990   22.3750 C   0  0  0  0  0  0  0  0  0  0  0  0
 14 15  1  0
 18 17  2  0
 15 17  1  0
 15 16  1  0
 27 26  1  0
 17 13  1  0
  6  5  2  0
  6  7  1  0
  5  4  1  0
  7  8  2  0
 19  3  1  0
 19 20  1  0
 11 10  1  0
  4  9  2  0
  4  3  1  0
  8  9  1  0
 28 26  1  0
 28 29  2  0
  9  1  1  0
  3  2  1  0
 26 25  2  0
  1  2  2  0
  1 13  1  0
  2 10  1  0
 10 12  2  0
 20 29  1  0
 20 21  2  0
 29 23  1  0
 25 24  1  0
 21 22  1  0
 23 24  2  0
 23 22  1  0
M  RAD  8   5   2   6   2   7   2   8   2  13   3  14   2  16   2  19   3
M  CHG  2   3   1  11  -1
M  RAD  4  21   2  24   2  25   2  28   2
M  END
>  <_TriposChargeType>  (1) 
GASTEIGER

>  <SuCOS_score>  (1) 
0.33640689899859816

>  <Volume_score>  (1) 
0.5104408352668213

>  <Feature_score>  (1) 
0.16237296273037502

$$$$
