DOCK.F36.P1t31/L1007_ligand.pdbt
     RDKit          3D

 31 35  0  0  0  0  0  0  0  0999 V2000
   -1.5070   37.9960   23.4380 C   0  0  0  0  0  3  0  0  0  0  0  0
   -0.1040   38.3910   23.3690 C   0  0  0  0  0  0  0  0  0  0  0  0
    0.6600   38.1970   24.5340 C   0  0  0  0  0  3  0  0  0  0  0  0
    1.9870   38.5210   24.6240 C   0  0  0  0  0  3  0  0  0  0  0  0
    2.6140   39.0630   23.5250 C   0  0  0  0  0  0  0  0  0  0  0  0
    3.9630   39.3980   23.5980 C   0  0  0  0  0  3  0  0  0  0  0  0
    4.5830   39.9390   22.5000 C   0  0  0  0  0  3  0  0  0  0  0  0
    3.8380   40.1300   21.3590 C   0  0  0  0  0  3  0  0  0  0  0  0
    2.5100   39.8030   21.2800 C   0  0  0  0  0  3  0  0  0  0  0  0
    1.8620   39.2540   22.3800 C   0  0  0  0  0  0  0  0  0  0  0  0
    0.5260   38.9270   22.2930 C   0  0  0  0  0  3  0  0  0  0  0  0
   -3.3990   41.7560   21.8740 C   0  0  0  0  0  1  0  0  0  0  0  0
   -3.7620   40.2660   21.9790 C   0  0  2  0  0  0  0  0  0  0  0  0
   -3.5720   39.7650   23.3140 C   0  0  0  0  0  0  0  0  0  0  0  0
   -4.1440   39.9650   24.4040 O   0  0  0  0  0  0  0  0  0  0  0  0
   -2.4770   38.9690   22.8470 C   0  0  0  0  0  0  0  0  0  0  0  0
   -2.6480   39.4270   21.6270 C   0  0  0  0  0  0  0  0  0  0  0  0
   -2.0020   39.2030   20.4000 O   0  0  0  0  0  0  0  0  0  0  0  0
   -1.0480   39.5360   20.3270 H   0  0  0  0  0  0  0  0  0  0  0  0
   -5.0560   39.9760   21.3190 C   0  0  0  0  0  0  0  0  0  0  0  0
   -5.6080   40.9520   20.5220 C   0  0  0  0  0  3  0  0  0  0  0  0
   -6.8130   40.7700   19.8660 C   0  0  0  0  0  3  0  0  0  0  0  0
   -7.4980   39.5890   19.9990 C   0  0  0  0  0  3  0  0  0  0  0  0
   -6.9410   38.6120   20.7990 C   0  0  0  0  0  3  0  0  0  0  0  0
   -5.7360   38.8040   21.4510 C   0  0  0  0  0  3  0  0  0  0  0  0
   -1.6630   36.6180   22.9420 C   0  0  0  0  0  0  0  0  0  0  0  0
   -2.8350   36.2000   22.3520 C   0  0  0  0  0  3  0  0  0  0  0  0
   -3.0280   34.9250   21.8890 C   0  0  0  0  0  3  0  0  0  0  0  0
   -2.0130   34.0110   22.0110 C   0  0  0  0  0  3  0  0  0  0  0  0
   -0.8320   34.4150   22.6000 C   0  0  0  0  0  3  0  0  0  0  0  0
   -0.6330   35.7030   23.0690 C   0  0  0  0  0  3  0  0  0  0  0  0
 22 23  1  0
 22 21  2  0
 23 24  2  0
 19 18  1  0
 18 17  1  0
 21 20  1  0
 24 25  1  0
  9  8  2  0
  9 10  1  0
 20 25  2  0
 20 13  1  0
  8  7  1  0
 17 13  1  0
 17 16  2  0
 13 12  1  1
 28 29  1  0
 28 27  2  0
 13 14  1  0
 29 30  2  0
 11 10  2  0
 11  2  1  0
 27 26  1  0
 10  5  1  0
  7  6  2  0
 30 31  1  0
 16 14  1  0
 16  1  1  0
 26 31  2  0
 26  1  1  0
 14 15  2  0
  2  1  1  0
  2  3  2  0
  5  6  1  0
  5  4  2  0
  3  4  1  0
M  RAD  8   1   2   3   2   4   2   6   2   7   2   8   2   9   2  11   2
M  RAD  8  12   2  21   2  22   2  23   2  24   2  25   2  27   2  28   2
M  RAD  3  29   2  30   2  31   2
M  END
>  <_TriposChargeType>  (1) 
GASTEIGER

>  <SuCOS_score>  (1) 
0.29286940330037514

>  <Volume_score>  (1) 
0.4364158656502044

>  <Feature_score>  (1) 
0.1493229409505459

$$$$
