DOCK.F36.P1t31/L1001_ligand.pdbt
     RDKit          3D

 32 35  0  0  0  0  0  0  0  0999 V2000
   -4.2600   38.8650   21.6060 C   0  0  0  0  0  0  0  0  0  0  0  0
   -3.1430   39.6940   21.7910 C   0  0  0  0  0  0  0  0  0  0  0  0
   -2.0370   39.0240   21.4580 N   0  0  0  0  0  4  0  0  0  0  0  0
   -2.4160   37.7960   21.0690 C   0  0  0  0  0  0  0  0  0  0  0  0
   -1.6480   36.7040   20.6210 C   0  0  0  0  0  3  0  0  0  0  0  0
   -2.2310   35.5260   20.2670 C   0  0  0  0  0  3  0  0  0  0  0  0
   -3.5970   35.3770   20.3390 C   0  0  0  0  0  0  0  0  0  0  0  0
   -4.2180   34.2260   19.9970 F   0  0  0  0  0  0  0  0  0  0  0  0
   -4.3400   36.4610   20.7820 C   0  0  0  0  0  3  0  0  0  0  0  0
   -3.7740   37.6760   21.1510 C   0  0  0  0  0  0  0  0  0  0  0  0
   -3.2390   41.0620   22.2740 C   0  0  0  0  0  0  0  0  0  0  0  0
   -2.8000   42.0000   21.5980 O   0  0  0  0  0  1  0  0  0  0  0  0
   -3.8220   41.3060   23.4950 O   0  0  0  0  0  0  0  0  0  0  0  0
   -5.6290   39.2680   21.8680 C   0  0  0  0  0  2  0  0  0  0  0  0
   -6.6600   40.5190   20.0410 C   0  0  0  0  0  0  0  0  0  0  0  0
   -5.9720   41.5420   20.3110 O   0  0  0  0  0  0  0  0  0  0  0  0
   -6.5590   39.3190   20.7970 N   0  0  0  0  0  0  0  0  0  0  0  0
   -7.4000   38.1940   20.4000 C   0  0  0  0  0  1  0  0  0  0  0  0
   -7.5300   40.5820   18.9780 O   0  0  0  0  0  0  0  0  0  0  0  0
   -9.7350   41.0010   18.2020 C   0  0  0  0  0  1  0  0  0  0  0  0
   -8.4750   41.6090   18.7700 C   0  0  0  0  0  2  0  0  0  0  0  0
   -0.6770   39.4730   21.4890 C   0  0  0  0  0  2  0  0  0  0  0  0
    0.0710   38.9770   22.6660 C   0  0  0  0  0  0  0  0  0  0  0  0
   -0.5060   38.2840   23.7110 C   0  0  0  0  0  3  0  0  0  0  0  0
    0.2390   37.8350   24.8000 C   0  0  0  0  0  3  0  0  0  0  0  0
    1.6010   38.1100   24.8040 C   0  0  0  0  0  3  0  0  0  0  0  0
    2.2180   38.8010   23.7810 C   0  0  0  0  0  0  0  0  0  0  0  0
    3.5680   39.0640   23.8020 C   0  0  0  0  0  3  0  0  0  0  0  0
    4.1460   39.7530   22.7670 C   0  0  0  0  0  3  0  0  0  0  0  0
    3.4230   40.2000   21.6870 C   0  0  0  0  0  3  0  0  0  0  0  0
    2.0630   39.9200   21.6930 C   0  0  0  0  0  3  0  0  0  0  0  0
    1.4260   39.2320   22.7050 C   0  0  0  0  0  0  0  0  0  0  0  0
 20 21  1  0
 21 19  1  0
 19 15  1  0
  8  7  1  0
 15 16  2  0
 15 17  1  0
  6  7  2  0
  6  5  1  0
  7  9  1  0
 18 17  1  0
  5  4  2  0
  9 10  2  0
 17 14  1  0
  4 10  1  0
  4  3  1  0
 10  1  1  0
  3 22  1  0
  3  2  1  0
 22 23  1  0
 12 11  1  0
  1  2  2  0
  1 14  1  0
 30 31  1  0
 30 29  2  0
 31 32  2  0
  2 11  1  0
 11 13  2  0
 23 32  1  0
 23 24  2  0
 32 27  1  0
 29 28  1  0
 24 25  1  0
 27 28  2  0
 27 26  1  0
 25 26  2  0
M  RAD  8   5   2   6   2   9   2  14   3  18   2  20   2  21   3  22   3
M  CHG  2   3   1  12  -1
M  RAD  7  24   2  25   2  26   2  28   2  29   2  30   2  31   2
M  END
>  <_TriposChargeType>  (1) 
GASTEIGER

>  <SuCOS_score>  (1) 
0.3452768292058822

>  <Volume_score>  (1) 
0.5133134460280633

>  <Feature_score>  (1) 
0.1772402123837012

$$$$
