DOCK.F36.P1t31/L1015_ligand.pdbt
     RDKit          3D

 32 35  0  0  0  0  0  0  0  0999 V2000
   -2.3090   36.5310   22.8590 N   0  0  0  0  0  0  0  0  0  0  0  0
   -3.0850   36.6200   22.1680 H   0  0  0  0  0  0  0  0  0  0  0  0
   -1.6430   35.3000   22.9740 C   0  0  0  0  0  0  0  0  0  0  0  0
   -0.6220   35.0150   23.8600 C   0  0  0  0  0  3  0  0  0  0  0  0
   -0.0000   33.7860   23.9570 C   0  0  0  0  0  3  0  0  0  0  0  0
   -0.4000   32.7660   23.1360 C   0  0  0  0  0  0  0  0  0  0  0  0
   -1.4180   33.0180   22.2400 C   0  0  0  0  0  3  0  0  0  0  0  0
   -2.0200   34.2250   22.1520 C   0  0  0  0  0  0  0  0  0  0  0  0
    0.2090   31.4340   23.1770 C   0  0  0  0  0  0  0  0  0  0  0  0
   -0.3970   30.3330   22.6000 C   0  0  0  0  0  3  0  0  0  0  0  0
    0.2120   29.0870   22.6590 C   0  0  0  0  0  3  0  0  0  0  0  0
    1.3850   28.9570   23.2780 N   0  0  0  0  0  0  0  0  0  0  0  0
    2.0120   30.0000   23.8540 C   0  0  0  0  0  3  0  0  0  0  0  0
    1.4180   31.2330   23.7990 C   0  0  0  0  0  3  0  0  0  0  0  0
   -3.3030   34.4910   21.0010 S   0  0  1  0  0  6  0  0  0  0  0  0
   -2.5990   35.2000   19.5340 C   0  0  0  0  0  1  0  0  0  0  0  0
   -3.9500   33.1810   20.6550 O   0  0  0  0  0  0  0  0  0  0  0  0
   -4.3820   35.3690   21.5720 O   0  0  0  0  0  0  0  0  0  0  0  0
   -1.8860   37.8700   23.8140 S   0  0  2  0  0  6  0  0  0  0  0  0
   -1.9990   37.4700   25.2780 O   0  0  0  0  0  0  0  0  0  0  0  0
   -2.8780   38.9870   23.6250 O   0  0  0  0  0  0  0  0  0  0  0  0
   -0.6310   39.1930   21.1600 C   0  0  0  0  0  1  0  0  0  0  0  0
    0.2740   39.0040   22.3710 C   0  0  0  0  0  0  0  0  0  0  0  0
   -0.2650   38.4420   23.4910 C   0  0  0  0  0  0  0  0  0  0  0  0
    1.0290   38.4050   24.5820 S   0  0  0  0  0  0  0  0  0  0  0  0
    2.2440   39.1080   23.5920 C   0  0  0  0  0  0  0  0  0  0  0  0
    3.5930   39.4100   23.8000 C   0  0  0  0  0  3  0  0  0  0  0  0
    4.3460   39.9880   22.8000 C   0  0  0  0  0  3  0  0  0  0  0  0
    3.6730   40.2290   21.6230 C   0  0  0  0  0  0  0  0  0  0  0  0
    4.4000   40.8000   20.6200 F   0  0  0  0  0  0  0  0  0  0  0  0
    2.3570   39.9420   21.4020 C   0  0  0  0  0  3  0  0  0  0  0  0
    1.5770   39.3500   22.4230 C   0  0  0  0  0  0  0  0  0  0  0  0
 15 16  1  6
 30 29  1  0
 17 15  2  0
 15 18  2  0
 15  8  1  0
 22 23  1  0
 31 29  1  0
 31 32  2  0
 29 28  2  0
  8  7  2  0
  8  3  1  0
  2  1  1  0
  7  6  1  0
 23 32  1  0
 23 24  2  0
 32 26  1  0
 10 11  2  0
 10  9  1  0
 11 12  1  0
 28 27  1  0
  1  3  1  0
 19  1  1  6
  3  4  2  0
  6  9  1  0
  6  5  2  0
  9 14  2  0
 12 13  2  0
 24 19  1  0
 24 25  1  0
 26 27  2  0
 26 25  1  0
 21 19  2  0
 14 13  1  0
 19 20  2  0
  4  5  1  0
M  RAD  8   4   2   5   2   7   2  10   2  11   2  13   2  14   2  16   2
M  RAD  4  22   2  27   2  28   2  31   2
M  END
>  <_TriposChargeType>  (1) 
GASTEIGER

>  <SuCOS_score>  (1) 
0.24491604152982183

>  <Volume_score>  (1) 
0.3281802120141343

>  <Feature_score>  (1) 
0.16165187104550935

$$$$
