DOCK.F36.P1t31/L1013_ligand.pdbt
     RDKit          3D

 27 30  0  0  0  0  0  0  0  0999 V2000
   -5.1610   36.9080   21.5590 N   0  0  0  0  0  4  0  0  0  0  0  0
   -4.3910   37.9330   22.0250 C   0  0  0  0  0  0  0  0  0  0  0  0
   -3.1260   37.8820   21.4830 C   0  0  0  0  0  0  0  0  0  0  0  0
   -3.1700   36.7460   20.6410 C   0  0  0  0  0  0  0  0  0  0  0  0
   -2.2310   36.1810   19.8060 C   0  0  0  0  0  3  0  0  0  0  0  0
   -2.5310   35.0630   19.0520 C   0  0  0  0  0  3  0  0  0  0  0  0
   -3.7810   34.5040   19.1330 C   0  0  0  0  0  3  0  0  0  0  0  0
   -4.7300   35.0530   19.9580 C   0  0  0  0  0  3  0  0  0  0  0  0
   -4.4050   36.1940   20.7160 C   0  0  0  0  0  0  0  0  0  0  0  0
   -4.9360   38.9250   22.9510 C   0  0  0  0  0  0  0  0  0  0  0  0
   -4.9860   38.6000   24.1920 O   0  0  0  0  0  1  0  0  0  0  0  0
   -5.4010   40.1740   22.6010 O   0  0  0  0  0  0  0  0  0  0  0  0
   -6.5460   36.5760   21.8720 C   0  0  0  0  0  2  0  0  0  0  0  0
   -7.4910   37.1760   20.8620 C   0  0  0  0  0  2  0  0  0  0  0  0
   -8.6510   38.4350   22.4280 C   0  0  0  0  0  1  0  0  0  0  0  0
   -8.0020   38.4000   21.2010 O   0  0  0  0  0  0  0  0  0  0  0  0
   -1.9770   38.7860   21.6140 C   0  0  0  0  0  2  0  0  0  0  0  0
   -0.9590   38.6220   22.5990 C   0  0  0  0  0  0  0  0  0  0  0  0
   -1.2470   38.0220   23.8430 C   0  0  0  0  0  3  0  0  0  0  0  0
   -0.3540   37.8840   24.8550 C   0  0  0  0  0  3  0  0  0  0  0  0
    0.9240   38.3390   24.7090 C   0  0  0  0  0  3  0  0  0  0  0  0
    1.2750   38.9350   23.5270 C   0  0  0  0  0  0  0  0  0  0  0  0
    2.5690   39.4120   23.3670 C   0  0  0  0  0  3  0  0  0  0  0  0
    2.9800   40.0300   22.1980 C   0  0  0  0  0  3  0  0  0  0  0  0
    2.0690   40.1580   21.2000 C   0  0  0  0  0  3  0  0  0  0  0  0
    0.7960   39.6830   21.3710 C   0  0  0  0  0  3  0  0  0  0  0  0
    0.3330   39.0640   22.5020 C   0  0  0  0  0  0  0  0  0  0  0  0
  6  7  2  0
  6  5  1  0
  7  8  1  0
  5  4  2  0
  8  9  2  0
  4  9  1  0
  4  3  1  0
  9  1  1  0
 14 16  1  0
 14 13  1  0
 25 26  1  0
 25 24  2  0
 16 15  1  0
 26 27  2  0
  3 17  1  0
  3  2  2  0
  1 13  1  0
  1  2  1  0
 17 18  1  0
  2 10  1  0
 24 23  1  0
 27 18  1  0
 27 22  1  0
 18 19  2  0
 12 10  2  0
 10 11  1  0
 23 22  2  0
 22 21  1  0
 19 20  1  0
 21 20  2  0
M  RAD  8   5   2   6   2   7   2   8   2  13   3  14   3  15   2  17   3
M  CHG  2   1   1  11  -1
M  RAD  7  19   2  20   2  21   2  23   2  24   2  25   2  26   2
M  END
>  <_TriposChargeType>  (1) 
GASTEIGER

>  <SuCOS_score>  (1) 
0.24351521878011484

>  <Volume_score>  (1) 
0.38912827311899234

>  <Feature_score>  (1) 
0.09790216444123732

$$$$
