DOCK.F36.P3s0n/L1005_ligand.pdbt
     RDKit          3D

 31 34  0  0  0  0  0  0  0  0999 V2000
   -4.3360   38.8450   21.5360 C   0  0  0  0  0  0  0  0  0  0  0  0
   -3.1140   39.5500   21.5960 C   0  0  0  0  0  0  0  0  0  0  0  0
   -2.1250   38.7790   21.1650 N   0  0  0  0  0  4  0  0  0  0  0  0
   -2.6670   37.5480   20.8160 C   0  0  0  0  0  0  0  0  0  0  0  0
   -1.9980   36.4360   20.3510 C   0  0  0  0  0  3  0  0  0  0  0  0
   -2.7580   35.2850   20.1020 C   0  0  0  0  0  3  0  0  0  0  0  0
   -4.1140   35.3030   20.3240 C   0  0  0  0  0  0  0  0  0  0  0  0
   -4.8760   34.1820   20.0820 F   0  0  0  0  0  0  0  0  0  0  0  0
   -4.7420   36.4430   20.7930 C   0  0  0  0  0  3  0  0  0  0  0  0
   -4.0260   37.6000   21.0490 C   0  0  0  0  0  0  0  0  0  0  0  0
   -3.0690   40.9190   22.1100 C   0  0  0  0  0  0  0  0  0  0  0  0
   -3.4720   41.2140   23.2880 O   0  0  0  0  0  1  0  0  0  0  0  0
   -2.6000   42.0000   21.4000 O   0  0  0  0  0  0  0  0  0  0  0  0
   -5.6280   39.3950   21.9570 C   0  0  0  0  0  2  0  0  0  0  0  0
   -7.0910   40.3760   20.1570 C   0  0  0  0  0  0  0  0  0  0  0  0
   -7.4360   39.2070   19.8010 O   0  0  0  0  0  0  0  0  0  0  0  0
   -6.1790   40.4860   21.2400 N   0  0  0  0  0  0  0  0  0  0  0  0
   -5.9260   41.4980   21.4980 H   0  0  0  0  0  0  0  0  0  0  0  0
   -8.6010   41.3980   18.5100 C   0  0  0  0  0  1  0  0  0  0  0  0
   -7.5990   41.4920   19.4960 O   0  0  0  0  0  0  0  0  0  0  0  0
   -0.7020   39.0620   21.0920 C   0  0  0  0  0  2  0  0  0  0  0  0
   -0.0430   38.8080   22.3580 C   0  0  0  0  0  0  0  0  0  0  0  0
   -0.7150   38.1750   23.3930 C   0  0  0  0  0  3  0  0  0  0  0  0
   -0.1430   37.7990   24.5870 C   0  0  0  0  0  3  0  0  0  0  0  0
    1.1970   38.0840   24.7420 C   0  0  0  0  0  3  0  0  0  0  0  0
    1.9060   38.7050   23.7650 C   0  0  0  0  0  0  0  0  0  0  0  0
    3.2190   39.0030   24.0060 C   0  0  0  0  0  3  0  0  0  0  0  0
    3.9820   39.6820   23.0640 C   0  0  0  0  0  3  0  0  0  0  0  0
    3.3680   40.0510   21.8710 C   0  0  0  0  0  3  0  0  0  0  0  0
    2.0460   39.7540   21.6210 C   0  0  0  0  0  3  0  0  0  0  0  0
    1.2960   39.0800   22.5510 C   0  0  0  0  0  0  0  0  0  0  0  0
 19 20  1  0
 20 15  1  0
 16 15  2  0
  8  7  1  0
  6  7  2  0
  6  5  1  0
 15 17  1  0
  7  9  1  0
  5  4  2  0
  9 10  2  0
  4 10  1  0
  4  3  1  0
 10  1  1  0
 21  3  1  0
 21 22  1  0
  3  2  1  0
 17 18  1  0
 17 14  1  0
 13 11  2  0
  1  2  2  0
  1 14  1  0
  2 11  1  0
 30 29  1  0
 30 31  2  0
 29 28  2  0
 11 12  1  0
 22 31  1  0
 22 23  2  0
 31 26  1  0
 28 27  1  0
 23 24  1  0
 26 27  2  0
 26 25  1  0
 24 25  2  0
M  RAD  8   5   2   6   2   9   2  14   3  19   2  21   3  23   2  24   2
M  CHG  2   3   1  12  -1
M  RAD  5  25   2  27   2  28   2  29   2  30   2
M  END
>  <_TriposChargeType>  (1) 
GASTEIGER

>  <SuCOS_score>  (1) 
0.335561082131901

>  <Volume_score>  (1) 
0.4907745000552425

>  <Feature_score>  (1) 
0.18034766420855955

$$$$
