DOCK.F36.P3s0n/L1003_ligand.pdbt
     RDKit          3D

 32 35  0  0  0  0  0  0  0  0999 V2000
   -2.9810   38.1690   21.7650 N   0  0  0  0  0  0  0  0  0  0  0  0
   -2.7790   39.0430   21.1880 H   0  0  0  0  0  0  0  0  0  0  0  0
   -4.0050   37.3410   21.3070 C   0  0  0  0  0  0  0  0  0  0  0  0
   -5.3360   37.5280   21.6460 C   0  0  0  0  0  3  0  0  0  0  0  0
   -6.3350   36.6860   21.1860 C   0  0  0  0  0  3  0  0  0  0  0  0
   -6.0350   35.6210   20.3670 C   0  0  0  0  0  0  0  0  0  0  0  0
   -4.7230   35.4200   20.0210 C   0  0  0  0  0  3  0  0  0  0  0  0
   -3.7240   36.2700   20.4870 C   0  0  0  0  0  0  0  0  0  0  0  0
   -7.0400   34.7020   19.8520 C   0  0  0  0  0  0  0  0  0  0  0  0
   -8.0560   35.1330   19.0130 C   0  0  0  0  0  3  0  0  0  0  0  0
   -9.0220   34.2890   18.5090 C   0  0  0  0  0  3  0  0  0  0  0  0
   -8.9760   32.9750   18.8510 N   0  0  0  0  0  0  0  0  0  0  0  0
   -8.0040   32.5350   19.6610 C   0  0  0  0  0  3  0  0  0  0  0  0
   -7.0290   33.3610   20.1750 C   0  0  0  0  0  3  0  0  0  0  0  0
   -2.3490   35.9590   20.0620 C   0  0  2  0  0  0  0  0  0  0  0  0
   -1.6940   35.0890   20.8890 F   0  0  0  0  0  0  0  0  0  0  0  0
   -1.6430   37.1640   19.9320 F   0  0  0  0  0  0  0  0  0  0  0  0
   -2.3300   35.4000   18.8000 F   0  0  0  0  0  0  0  0  0  0  0  0
   -2.0010   37.9560   23.1470 S   0  0  1  0  0  6  0  0  0  0  0  0
   -2.6050   38.6460   24.3490 O   0  0  0  0  0  0  0  0  0  0  0  0
   -1.9500   36.4830   23.5410 O   0  0  0  0  0  0  0  0  0  0  0  0
    0.7400   37.7020   24.9900 C   0  0  0  0  0  1  0  0  0  0  0  0
    0.7790   38.4060   23.6410 C   0  0  0  0  0  0  0  0  0  0  0  0
   -0.3550   38.4880   22.9030 C   0  0  0  0  0  0  0  0  0  0  0  0
    0.1610   39.3320   21.4980 S   0  0  0  0  0  0  0  0  0  0  0  0
    1.8000   39.5500   21.8990 C   0  0  0  0  0  0  0  0  0  0  0  0
    2.8630   40.1620   21.2320 C   0  0  0  0  0  3  0  0  0  0  0  0
    4.1200   40.1990   21.7960 C   0  0  0  0  0  3  0  0  0  0  0  0
    4.2290   39.6000   23.0340 C   0  0  0  0  0  0  0  0  0  0  0  0
    5.4720   39.6320   23.6020 F   0  0  0  0  0  0  0  0  0  0  0  0
    3.1940   38.9990   23.6950 C   0  0  0  0  0  3  0  0  0  0  0  0
    1.9070   38.9590   23.1210 C   0  0  0  0  0  0  0  0  0  0  0  0
 11 12  1  0
 11 10  2  0
 15 18  1  6
 12 13  2  0
 10  9  1  0
 13 14  1  0
  9 14  2  0
  9  6  1  0
 17 15  1  0
  7  6  2  0
  7  8  1  0
 15  8  1  0
 15 16  1  0
  6  5  1  0
  8  3  2  0
  5  4  2  0
  2  1  1  0
 27 28  2  0
 27 26  1  0
  3  4  1  0
  3  1  1  0
 25 26  1  0
 25 24  1  0
 19  1  1  6
 28 29  1  0
 26 32  2  0
 24 19  1  0
 24 23  2  0
 29 30  1  0
 29 31  2  0
 32 23  1  0
 32 31  1  0
 19 21  2  0
 19 20  2  0
 23 22  1  0
M  RAD  8   4   2   5   2   7   2  10   2  11   2  13   2  14   2  22   2
M  RAD  3  27   2  28   2  31   2
M  END
>  <_TriposChargeType>  (1) 
GASTEIGER

>  <SuCOS_score>  (1) 
0.27493060053443585

>  <Volume_score>  (1) 
0.379864730014414

>  <Feature_score>  (1) 
0.1699964710544577

$$$$
