DOCK.F36.P3s0n/L1001_ligand.pdbt
     RDKit          3D

 32 35  0  0  0  0  0  0  0  0999 V2000
   -4.2550   38.8640   21.6000 C   0  0  0  0  0  0  0  0  0  0  0  0
   -3.1380   39.6930   21.7880 C   0  0  0  0  0  0  0  0  0  0  0  0
   -2.0320   39.0240   21.4520 N   0  0  0  0  0  4  0  0  0  0  0  0
   -2.4110   37.7970   21.0580 C   0  0  0  0  0  0  0  0  0  0  0  0
   -1.6430   36.7070   20.6060 C   0  0  0  0  0  3  0  0  0  0  0  0
   -2.2270   35.5300   20.2470 C   0  0  0  0  0  3  0  0  0  0  0  0
   -3.5930   35.3810   20.3190 C   0  0  0  0  0  0  0  0  0  0  0  0
   -4.2150   34.2310   19.9730 F   0  0  0  0  0  0  0  0  0  0  0  0
   -4.3360   36.4640   20.7670 C   0  0  0  0  0  3  0  0  0  0  0  0
   -3.7690   37.6780   21.1400 C   0  0  0  0  0  0  0  0  0  0  0  0
   -3.2330   41.0590   22.2760 C   0  0  0  0  0  0  0  0  0  0  0  0
   -2.8000   42.0000   21.6000 O   0  0  0  0  0  1  0  0  0  0  0  0
   -3.8080   41.2980   23.5010 O   0  0  0  0  0  0  0  0  0  0  0  0
   -5.6230   39.2680   21.8640 C   0  0  0  0  0  2  0  0  0  0  0  0
   -6.6480   40.5200   20.0350 C   0  0  0  0  0  0  0  0  0  0  0  0
   -5.9530   41.5390   20.3010 O   0  0  0  0  0  0  0  0  0  0  0  0
   -6.5550   39.3210   20.7930 N   0  0  0  0  0  0  0  0  0  0  0  0
   -7.4030   38.2010   20.4010 C   0  0  0  0  0  1  0  0  0  0  0  0
   -7.5190   40.5860   18.9720 O   0  0  0  0  0  0  0  0  0  0  0  0
   -9.7340   41.0010   18.2250 C   0  0  0  0  0  1  0  0  0  0  0  0
   -8.4650   41.6120   18.7690 C   0  0  0  0  0  2  0  0  0  0  0  0
   -0.6710   39.4720   21.4840 C   0  0  0  0  0  2  0  0  0  0  0  0
    0.0740   38.9780   22.6630 C   0  0  0  0  0  0  0  0  0  0  0  0
   -0.5040   38.2870   23.7080 C   0  0  0  0  0  3  0  0  0  0  0  0
    0.2390   37.8400   24.7990 C   0  0  0  0  0  3  0  0  0  0  0  0
    1.6000   38.1150   24.8050 C   0  0  0  0  0  3  0  0  0  0  0  0
    2.2200   38.8040   23.7820 C   0  0  0  0  0  0  0  0  0  0  0  0
    3.5690   39.0670   23.8040 C   0  0  0  0  0  3  0  0  0  0  0  0
    4.1500   39.7540   22.7690 C   0  0  0  0  0  3  0  0  0  0  0  0
    3.4280   40.1990   21.6870 C   0  0  0  0  0  3  0  0  0  0  0  0
    2.0680   39.9190   21.6910 C   0  0  0  0  0  3  0  0  0  0  0  0
    1.4300   39.2330   22.7040 C   0  0  0  0  0  0  0  0  0  0  0  0
 20 21  1  0
 21 19  1  0
 19 15  1  0
  8  7  1  0
 15 16  2  0
 15 17  1  0
  6  7  2  0
  6  5  1  0
  7  9  1  0
 18 17  1  0
  5  4  2  0
  9 10  2  0
 17 14  1  0
  4 10  1  0
  4  3  1  0
 10  1  1  0
  3 22  1  0
  3  2  1  0
 22 23  1  0
  1  2  2  0
  1 14  1  0
 12 11  1  0
 30 31  1  0
 30 29  2  0
 31 32  2  0
  2 11  1  0
 11 13  2  0
 23 32  1  0
 23 24  2  0
 32 27  1  0
 29 28  1  0
 24 25  1  0
 27 28  2  0
 27 26  1  0
 25 26  2  0
M  RAD  8   5   2   6   2   9   2  14   3  18   2  20   2  21   3  22   3
M  CHG  2   3   1  12  -1
M  RAD  7  24   2  25   2  26   2  28   2  29   2  30   2  31   2
M  END
>  <_TriposChargeType>  (1) 
GASTEIGER

>  <SuCOS_score>  (1) 
0.3452920571866125

>  <Volume_score>  (1) 
0.5132029609987847

>  <Feature_score>  (1) 
0.1773811533744403

$$$$
