DOCK.F36.P3s0n/L1017_ligand.pdbt
     RDKit          3D

 31 34  0  0  0  0  0  0  0  0999 V2000
   -4.0400   38.8520   21.5990 C   0  0  0  0  0  0  0  0  0  0  0  0
   -2.8610   39.5520   21.6970 C   0  0  0  0  0  0  0  0  0  0  0  0
   -1.8140   38.8130   21.3500 N   0  0  0  0  0  4  0  0  0  0  0  0
   -2.2700   37.6050   21.0160 C   0  0  0  0  0  0  0  0  0  0  0  0
   -1.6820   36.4160   20.5900 C   0  0  0  0  0  3  0  0  0  0  0  0
   -2.3500   35.2630   20.3030 C   0  0  0  0  0  3  0  0  0  0  0  0
   -3.7440   35.2560   20.4480 C   0  0  0  0  0  0  0  0  0  0  0  0
   -4.4350   34.1380   20.2000 F   0  0  0  0  0  0  0  0  0  0  0  0
   -4.3660   36.4190   20.8630 C   0  0  0  0  0  3  0  0  0  0  0  0
   -3.6760   37.5770   21.1480 C   0  0  0  0  0  0  0  0  0  0  0  0
   -2.8600   41.0000   22.0970 C   0  0  0  0  0  0  0  0  0  0  0  0
   -2.2000   41.8000   21.4040 O   0  0  0  0  0  1  0  0  0  0  0  0
   -3.5230   41.5070   23.1840 O   0  0  0  0  0  0  0  0  0  0  0  0
   -5.3390   39.1620   22.1730 C   0  0  0  0  0  2  0  0  0  0  0  0
   -5.8580   40.4800   22.1560 N   0  0  0  0  0  0  0  0  0  0  0  0
   -5.4010   41.2700   22.5600 H   0  0  0  0  0  0  0  0  0  0  0  0
   -7.4910   39.5610   19.9940 C   0  0  0  0  0  1  0  0  0  0  0  0
   -6.2920   40.7650   20.4820 S   0  0  2  0  0  6  0  0  0  0  0  0
   -5.1330   40.8000   19.6010 O   0  0  0  0  0  0  0  0  0  0  0  0
   -7.0000   42.1430   20.4290 O   0  0  0  0  0  0  0  0  0  0  0  0
   -0.4570   39.2710   21.1990 C   0  0  0  0  0  2  0  0  0  0  0  0
    0.3870   38.9970   22.3640 C   0  0  0  0  0  0  0  0  0  0  0  0
   -0.0700   38.4710   23.5190 C   0  0  0  0  0  3  0  0  0  0  0  0
    0.7480   38.2600   24.6000 C   0  0  0  0  0  3  0  0  0  0  0  0
    2.0900   38.5880   24.5390 C   0  0  0  0  0  3  0  0  0  0  0  0
    2.5650   39.1410   23.3350 C   0  0  0  0  0  0  0  0  0  0  0  0
    3.9010   39.4670   23.2560 C   0  0  0  0  0  3  0  0  0  0  0  0
    4.3970   40.0000   22.0910 C   0  0  0  0  0  3  0  0  0  0  0  0
    3.5970   40.2130   21.0010 C   0  0  0  0  0  3  0  0  0  0  0  0
    2.2910   39.8750   21.1110 C   0  0  0  0  0  3  0  0  0  0  0  0
    1.7200   39.3290   22.2900 C   0  0  0  0  0  0  0  0  0  0  0  0
 19 18  2  0
 18 17  1  6
  8  7  1  0
  6  7  2  0
  6  5  1  0
 20 18  2  0
  7  9  1  0
 18 15  1  0
  5  4  2  0
  9 10  2  0
 29 30  1  0
 29 28  2  0
  4 10  1  0
  4  3  1  0
 30 31  2  0
 10  1  1  0
 21  3  1  0
 21 22  1  0
  3  2  1  0
 12 11  1  0
  1  2  2  0
  1 14  1  0
  2 11  1  0
 28 27  1  0
 11 13  2  0
 15 14  1  0
 15 16  1  0
 31 22  1  0
 31 26  1  0
 22 23  2  0
 27 26  2  0
 26 25  1  0
 23 24  1  0
 25 24  2  0
M  RAD  8   5   2   6   2   9   2  14   3  17   2  21   3  23   2  24   2
M  CHG  2   3   1  12  -1
M  RAD  5  25   2  27   2  28   2  29   2  30   2
M  END
>  <_TriposChargeType>  (1) 
GASTEIGER

>  <SuCOS_score>  (1) 
0.3507038640992542

>  <Volume_score>  (1) 
0.5290023201856149

>  <Feature_score>  (1) 
0.17240540801289347

$$$$
