DOCK.F36.P3s0n/L1014_ligand.pdbt
     RDKit          3D

 24 27  0  0  0  0  0  0  0  0999 V2000
   -0.6240   39.1350   21.0730 C   0  0  0  0  0  2  0  0  0  0  0  0
    1.5550   40.4000   20.5780 C   0  0  0  0  0  1  0  0  0  0  0  0
    2.0910   39.8010   21.7860 C   0  0  0  0  0  0  0  0  0  0  0  0
    3.4310   40.0000   22.1720 C   0  0  0  0  0  3  0  0  0  0  0  0
    3.9550   39.5440   23.3460 C   0  0  0  0  0  3  0  0  0  0  0  0
    3.1450   38.8580   24.2000 C   0  0  0  0  0  3  0  0  0  0  0  0
    1.8170   38.6330   23.8710 C   0  0  0  0  0  0  0  0  0  0  0  0
    1.0180   37.9850   24.7730 C   0  0  0  0  0  3  0  0  0  0  0  0
   -0.2960   37.8000   24.4810 C   0  0  0  0  0  3  0  0  0  0  0  0
   -0.8000   38.2440   23.3170 C   0  0  0  0  0  3  0  0  0  0  0  0
   -0.0320   38.9220   22.3240 C   0  0  0  0  0  0  0  0  0  0  0  0
    1.2820   39.0990   22.6590 C   0  0  0  0  0  0  0  0  0  0  0  0
   -2.0870   38.7770   21.1970 N   0  0  0  0  0  0  0  0  0  0  0  0
   -3.0890   39.5420   21.6480 C   0  0  0  0  0  0  0  0  0  0  0  0
   -4.2590   38.7420   21.6520 C   0  0  0  0  0  3  0  0  0  0  0  0
   -3.9450   37.4930   21.2000 C   0  0  0  0  0  0  0  0  0  0  0  0
   -4.6760   36.3180   21.0160 C   0  0  0  0  0  3  0  0  0  0  0  0
   -4.0770   35.1710   20.5560 C   0  0  0  0  0  3  0  0  0  0  0  0
   -2.7330   35.2210   20.2850 C   0  0  0  0  0  3  0  0  0  0  0  0
   -2.0130   36.3900   20.4690 C   0  0  0  0  0  3  0  0  0  0  0  0
   -2.5860   37.5520   20.9270 C   0  0  0  0  0  0  0  0  0  0  0  0
   -3.0870   40.9180   22.0690 C   0  0  0  0  0  0  0  0  0  0  0  0
   -3.5990   41.2020   23.2190 O   0  0  0  0  0  1  0  0  0  0  0  0
   -2.6000   42.0000   21.4000 O   0  0  0  0  0  0  0  0  0  0  0  0
 19 20  1  0
 19 18  2  0
 20 21  2  0
 18 17  1  0
  2  3  1  0
 21 13  1  0
 21 16  1  0
 17 16  2  0
  1 13  1  0
  1 11  1  0
 13 14  1  0
 16 15  1  0
 24 22  2  0
 14 15  2  0
 14 22  1  0
  3  4  2  0
  3 12  1  0
 22 23  1  0
  4  5  1  0
 11 12  2  0
 11 10  1  0
 12  7  1  0
 10  9  2  0
  5  6  2  0
  7  6  1  0
  7  8  2  0
  9  8  1  0
M  RAD  8   1   3   2   2   4   2   5   2   6   2   8   2   9   2  10   2
M  CHG  1  23  -1
M  RAD  5  15   2  17   2  18   2  19   2  20   2
M  END
>  <_TriposChargeType>  (1) 
GASTEIGER

>  <SuCOS_score>  (1) 
0.3463262330208489

>  <Volume_score>  (1) 
0.406474422715722

>  <Feature_score>  (1) 
0.28617804332597585

$$$$
