DOCK.F10.P4k2y/L1009_ligand.pdbt
     RDKit          3D

 34 38  0  0  0  0  0  0  0  0999 V2000
   -1.9260   38.2370   22.8850 C   0  0  0  0  0  3  0  0  0  0  0  0
    0.6370   38.0560   24.7950 C   0  0  0  0  0  1  0  0  0  0  0  0
    0.5720   38.5760   23.3960 C   0  0  0  0  0  0  0  0  0  0  0  0
   -0.5290   38.6610   22.5720 C   0  0  0  0  0  0  0  0  0  0  0  0
   -0.0670   39.2010   21.4310 N   0  0  0  0  0  0  0  0  0  0  0  0
    1.2390   39.4560   21.4950 C   0  0  0  0  0  0  0  0  0  0  0  0
    2.1700   40.0000   20.6030 C   0  0  0  0  0  3  0  0  0  0  0  0
    3.4820   40.1230   21.0100 C   0  0  0  0  0  3  0  0  0  0  0  0
    3.9220   39.7340   22.2540 C   0  0  0  0  0  0  0  0  0  0  0  0
    5.2360   39.8820   22.5990 F   0  0  0  0  0  0  0  0  0  0  0  0
    3.0040   39.1990   23.1280 C   0  0  0  0  0  3  0  0  0  0  0  0
    1.6790   39.0670   22.7410 C   0  0  0  0  0  0  0  0  0  0  0  0
   -0.6320   39.4170   20.5620 H   0  0  0  0  0  0  0  0  0  0  0  0
   -2.8260   39.3750   23.1630 C   0  0  0  0  0  0  0  0  0  0  0  0
   -3.0280   40.4890   22.4990 C   0  0  0  0  0  0  0  0  0  0  0  0
   -2.4000   40.8890   21.2930 O   0  0  0  0  0  0  0  0  0  0  0  0
   -4.0360   41.3270   23.1810 C   0  0  0  0  0  3  0  0  0  0  0  0
   -4.4450   40.6020   24.2990 O   0  0  0  0  0  0  0  0  0  0  0  0
   -3.7320   39.4230   24.3330 C   0  0  0  0  0  0  0  0  0  0  0  0
   -3.8610   38.5560   25.2340 O   0  0  0  0  0  0  0  0  0  0  0  0
   -1.9190   41.7900   21.3500 H   0  0  0  0  0  0  0  0  0  0  0  0
   -5.2660   41.5480   22.3190 C   0  0  0  0  0  2  0  0  0  0  0  0
   -5.9690   42.7750   22.7730 C   0  0  0  0  0  0  0  0  0  0  0  0
   -5.4000   44.0150   22.5910 C   0  0  0  0  0  3  0  0  0  0  0  0
   -6.0280   45.1820   23.0040 C   0  0  0  0  0  3  0  0  0  0  0  0
   -7.2730   45.1080   23.6260 C   0  0  0  0  0  3  0  0  0  0  0  0
   -7.8280   43.8660   23.8000 C   0  0  0  0  0  3  0  0  0  0  0  0
   -7.2030   42.7090   23.3880 C   0  0  0  0  0  3  0  0  0  0  0  0
   -2.4560   37.3160   21.8640 C   0  0  0  0  0  0  0  0  0  0  0  0
   -3.8210   37.0610   21.7330 C   0  0  0  0  0  3  0  0  0  0  0  0
   -4.2520   36.1860   20.7610 C   0  0  0  0  0  3  0  0  0  0  0  0
   -3.3720   35.5510   19.9110 C   0  0  0  0  0  3  0  0  0  0  0  0
   -2.0060   35.8000   20.0350 C   0  0  0  0  0  3  0  0  0  0  0  0
   -1.6000   36.6670   21.0010 C   0  0  0  0  0  3  0  0  0  0  0  0
 32 33  2  0
 32 31  1  0
 33 34  1  0
 13  5  1  0
  7  8  2  0
  7  6  1  0
 31 30  2  0
 34 29  2  0
  8  9  1  0
 16 21  1  0
 16 15  1  0
  5  6  1  0
  5  4  1  0
  6 12  2  0
 30 29  1  0
 29  1  1  0
  9 10  1  0
  9 11  2  0
 22 23  1  0
 22 17  1  0
 15 14  2  0
 15 17  1  0
  4  1  1  0
  4  3  2  0
 24 23  2  0
 24 25  1  0
 12 11  1  0
 12  3  1  0
 23 28  1  0
  1 14  1  0
 25 26  2  0
 14 19  1  0
 17 18  1  0
 28 27  2  0
  3  2  1  0
 26 27  1  0
 18 19  1  0
 19 20  2  0
M  RAD  8   1   2   2   2   7   2   8   2  11   2  17   2  22   3  24   2
M  RAD  8  25   2  26   2  27   2  28   2  30   2  31   2  32   2  33   2
M  RAD  1  34   2
M  END
>  <_TriposChargeType>  (1) 
GASTEIGER

>  <SuCOS_score>  (1) 
0.333817862292897

>  <Volume_score>  (1) 
0.4982874820461828

>  <Feature_score>  (1) 
0.16934824253961117

$$$$
