DOCK.F10.P4k2y/L1006_ligand.pdbt
     RDKit          3D

 42 46  0  0  0  0  0  0  0  0999 V2000
   -2.7570   38.0420   22.3330 C   0  0  0  0  0  3  0  0  0  0  0  0
   -0.5150   38.4760   23.5920 C   0  0  0  0  0  0  0  0  0  0  0  0
   -1.3940   38.4970   22.5000 C   0  0  0  0  0  0  0  0  0  0  0  0
   -0.6340   38.9270   21.4490 N   0  0  0  0  0  0  0  0  0  0  0  0
    0.6170   39.1580   21.8040 C   0  0  0  0  0  0  0  0  0  0  0  0
    1.7040   39.5860   21.0320 C   0  0  0  0  0  3  0  0  0  0  0  0
    2.9350   39.7420   21.6060 C   0  0  0  0  0  0  0  0  0  0  0  0
    4.1140   40.2010   20.8000 C   0  0  0  0  0  1  0  0  0  0  0  0
    3.0410   39.4630   22.9440 C   0  0  0  0  0  3  0  0  0  0  0  0
    1.9730   39.0420   23.7040 C   0  0  0  0  0  3  0  0  0  0  0  0
    0.7230   38.8800   23.1450 C   0  0  0  0  0  0  0  0  0  0  0  0
   -0.9840   39.0680   20.4540 H   0  0  0  0  0  0  0  0  0  0  0  0
   -0.9120   38.1910   24.9470 C   0  0  0  0  0  2  0  0  0  0  0  0
   -1.2170   36.7750   25.3540 C   0  0  1  0  0  0  0  0  0  0  0  0
   -0.9940   36.6000   26.8740 C   0  0  0  0  0  1  0  0  0  0  0  0
   -2.5910   36.2990   25.0450 C   0  0  0  0  0  1  0  0  0  0  0  0
   -0.0010   33.8060   23.2000 C   0  0  0  0  0  1  0  0  0  0  0  0
   -0.8630   34.8300   23.8800 C   0  0  0  0  0  0  0  0  0  0  0  0
   -2.1050   34.8160   23.6940 O   0  0  0  0  0  0  0  0  0  0  0  0
   -0.2630   35.8180   24.7370 N   0  0  0  0  0  0  0  0  0  0  0  0
    0.7500   35.8450   24.8980 H   0  0  0  0  0  0  0  0  0  0  0  0
   -3.6860   39.2300   22.2240 C   0  0  0  0  0  0  0  0  0  0  0  0
   -4.8130   39.6050   22.7410 C   0  0  0  0  0  0  0  0  0  0  0  0
   -5.6810   39.0140   23.6740 O   0  0  0  0  0  0  0  0  0  0  0  0
   -4.8810   40.8750   22.0120 C   0  0  1  0  0  0  0  0  0  0  0  0
   -4.7580   42.1280   22.8240 C   0  0  0  0  0  1  0  0  0  0  0  0
   -3.6110   40.4410   21.4330 C   0  0  0  0  0  0  0  0  0  0  0  0
   -2.7910   40.9140   20.6000 O   0  0  0  0  0  0  0  0  0  0  0  0
   -5.6480   39.4020   24.6150 H   0  0  0  0  0  0  0  0  0  0  0  0
   -6.0540   40.8480   21.0830 C   0  0  0  0  0  0  0  0  0  0  0  0
   -6.7390   39.6780   20.7980 C   0  0  0  0  0  3  0  0  0  0  0  0
   -7.8260   39.6750   19.9350 C   0  0  0  0  0  3  0  0  0  0  0  0
   -8.2520   40.8420   19.3390 C   0  0  0  0  0  0  0  0  0  0  0  0
   -9.4310   40.8460   18.4010 C   0  0  0  0  0  1  0  0  0  0  0  0
   -7.6000   42.0070   19.5990 C   0  0  0  0  0  3  0  0  0  0  0  0
   -6.5220   41.9870   20.4600 C   0  0  0  0  0  3  0  0  0  0  0  0
   -3.1190   37.0270   21.3670 C   0  0  0  0  0  0  0  0  0  0  0  0
   -4.4130   36.6030   21.2800 C   0  0  0  0  0  3  0  0  0  0  0  0
   -4.8030   35.6290   20.3860 C   0  0  0  0  0  3  0  0  0  0  0  0
   -3.8920   35.0310   19.5290 C   0  0  0  0  0  3  0  0  0  0  0  0
   -2.5870   35.4420   19.6000 C   0  0  0  0  0  3  0  0  0  0  0  0
   -2.2090   36.4150   20.4950 C   0  0  0  0  0  3  0  0  0  0  0  0
 34 33  1  0
 33 35  2  0
 33 32  1  0
 40 41  2  0
 40 39  1  0
 35 36  1  0
 41 42  1  0
 32 31  2  0
 39 38  2  0
 12  4  1  0
 36 30  2  0
 42 37  2  0
 28 27  2  0
 31 30  1  0
  8  7  1  0
  6  7  2  0
  6  5  1  0
 30 25  1  0
 38 37  1  0
 37  1  1  0
 27 25  1  0
 27 22  1  0
  4  5  1  0
  4  3  1  0
  7  9  1  0
  5 11  2  0
 25 23  1  0
 25 26  1  1
 22  1  1  0
 22 23  2  0
  1  3  1  0
  3  2  2  0
 23 24  1  0
  9 10  2  0
 11  2  1  0
 11 10  1  0
 17 18  1  0
  2 13  1  0
 24 29  1  0
 19 18  2  0
 18 20  1  0
 20 21  1  0
 20 14  1  0
 13 14  1  0
 14 16  1  1
 14 15  1  0
M  RAD  8   1   2   6   2   8   2   9   2  10   2  13   3  15   2  16   2
M  RAD  8  17   2  26   2  31   2  32   2  34   2  35   2  36   2  38   2
M  RAD  4  39   2  40   2  41   2  42   2
M  END
>  <_TriposChargeType>  (1) 
GASTEIGER

>  <SuCOS_score>  (1) 
0.3187698628740483

>  <Volume_score>  (1) 
0.5248478140564472

>  <Feature_score>  (1) 
0.11269191169164937

$$$$
