DOCK.F10.P4k2y/L1015_ligand.pdbt
     RDKit          3D

 32 35  0  0  0  0  0  0  0  0999 V2000
   -4.4020   39.6770   22.9010 N   0  0  0  0  0  0  0  0  0  0  0  0
   -4.8240   39.3080   22.0210 H   0  0  0  0  0  0  0  0  0  0  0  0
   -4.7180   40.9840   23.3070 C   0  0  0  0  0  0  0  0  0  0  0  0
   -4.9990   41.3810   24.6000 C   0  0  0  0  0  3  0  0  0  0  0  0
   -5.2900   42.6810   24.9660 C   0  0  0  0  0  3  0  0  0  0  0  0
   -5.3060   43.6580   24.0090 C   0  0  0  0  0  0  0  0  0  0  0  0
   -5.0290   43.2950   22.7070 C   0  0  0  0  0  3  0  0  0  0  0  0
   -4.7460   42.0200   22.3580 C   0  0  0  0  0  0  0  0  0  0  0  0
   -5.6050   45.0600   24.3150 C   0  0  0  0  0  0  0  0  0  0  0  0
   -6.8970   45.5040   24.5290 C   0  0  0  0  0  3  0  0  0  0  0  0
   -7.1400   46.8400   24.8180 C   0  0  0  0  0  3  0  0  0  0  0  0
   -6.1190   47.6940   24.8860 N   0  0  0  0  0  0  0  0  0  0  0  0
   -4.8450   47.3070   24.6850 C   0  0  0  0  0  3  0  0  0  0  0  0
   -4.5980   45.9910   24.4000 C   0  0  0  0  0  3  0  0  0  0  0  0
   -4.4030   41.6130   20.6970 S   0  0  1  0  0  6  0  0  0  0  0  0
   -5.9290   41.1850   19.9000 C   0  0  0  0  0  1  0  0  0  0  0  0
   -3.7970   42.7980   20.0030 O   0  0  0  0  0  0  0  0  0  0  0  0
   -3.4000   40.4960   20.6000 O   0  0  0  0  0  0  0  0  0  0  0  0
   -3.3560   38.6880   23.8010 S   0  0  2  0  0  6  0  0  0  0  0  0
   -3.6890   37.2340   23.4960 O   0  0  0  0  0  0  0  0  0  0  0  0
   -3.6100   38.8570   25.2760 O   0  0  0  0  0  0  0  0  0  0  0  0
   -0.6960   37.7910   25.3770 C   0  0  0  0  0  1  0  0  0  0  0  0
   -0.5390   38.6090   24.1020 C   0  0  0  0  0  0  0  0  0  0  0  0
   -1.6710   38.9860   23.4400 C   0  0  0  0  0  0  0  0  0  0  0  0
   -1.0870   39.8560   22.1110 S   0  0  0  0  0  0  0  0  0  0  0  0
    0.5990   39.7280   22.4180 C   0  0  0  0  0  0  0  0  0  0  0  0
    1.7330   40.1990   21.7490 C   0  0  0  0  0  3  0  0  0  0  0  0
    2.9950   39.9380   22.2370 C   0  0  0  0  0  3  0  0  0  0  0  0
    3.0350   39.2000   23.4000 C   0  0  0  0  0  0  0  0  0  0  0  0
    4.2750   38.9310   23.9000 F   0  0  0  0  0  0  0  0  0  0  0  0
    1.9390   38.7320   24.0660 C   0  0  0  0  0  3  0  0  0  0  0  0
    0.6400   38.9940   23.5710 C   0  0  0  0  0  0  0  0  0  0  0  0
 15 16  1  6
 17 15  2  0
 18 15  2  0
 15  8  1  0
 27 28  2  0
 27 26  1  0
  2  1  1  0
 25 26  1  0
 25 24  1  0
 28 29  1  0
  8  7  2  0
  8  3  1  0
 26 32  2  0
  7  6  1  0
  1  3  1  0
 19  1  1  6
  3  4  2  0
 29 30  1  0
 29 31  2  0
 24 19  1  0
 24 23  2  0
 20 19  2  0
 32 31  1  0
 32 23  1  0
 19 21  2  0
  6  9  1  0
  6  5  2  0
 23 22  1  0
  9 14  1  0
  9 10  2  0
 14 13  2  0
 10 11  1  0
  4  5  1  0
 13 12  1  0
 11 12  2  0
M  RAD  8   4   2   5   2   7   2  10   2  11   2  13   2  14   2  16   2
M  RAD  4  22   2  27   2  28   2  31   2
M  END
>  <_TriposChargeType>  (1) 
GASTEIGER

>  <SuCOS_score>  (1) 
0.32284623332972706

>  <Volume_score>  (1) 
0.4447022428460944

>  <Feature_score>  (1) 
0.2009902238133598

$$$$
