DOCK.F10.P4k69/L1003_ligand.pdbt
     RDKit          3D

 32 35  0  0  0  0  0  0  0  0999 V2000
   -4.5030   40.0450   22.8390 N   0  0  0  0  0  0  0  0  0  0  0  0
   -5.1760   39.6900   22.0910 H   0  0  0  0  0  0  0  0  0  0  0  0
   -4.6610   41.3690   23.2430 C   0  0  0  0  0  0  0  0  0  0  0  0
   -4.6310   41.7610   24.5730 C   0  0  0  0  0  3  0  0  0  0  0  0
   -4.8000   43.0830   24.9520 C   0  0  0  0  0  3  0  0  0  0  0  0
   -5.0050   44.0640   24.0080 C   0  0  0  0  0  0  0  0  0  0  0  0
   -5.0370   43.6950   22.6870 C   0  0  0  0  0  3  0  0  0  0  0  0
   -4.8680   42.3650   22.3130 C   0  0  0  0  0  0  0  0  0  0  0  0
   -5.1880   45.4680   24.3440 C   0  0  0  0  0  0  0  0  0  0  0  0
   -4.2040   46.1940   24.9950 C   0  0  0  0  0  3  0  0  0  0  0  0
   -4.3460   47.5240   25.3270 C   0  0  0  0  0  3  0  0  0  0  0  0
   -5.5060   48.1520   25.0010 N   0  0  0  0  0  0  0  0  0  0  0  0
   -6.4730   47.4720   24.3720 C   0  0  0  0  0  3  0  0  0  0  0  0
   -6.3510   46.1420   24.0300 C   0  0  0  0  0  3  0  0  0  0  0  0
   -4.9280   42.0780   20.8700 C   0  0  2  0  0  0  0  0  0  0  0  0
   -4.5840   40.7960   20.5430 F   0  0  0  0  0  0  0  0  0  0  0  0
   -4.1180   43.0070   20.2010 F   0  0  0  0  0  0  0  0  0  0  0  0
   -6.1970   42.2900   20.3700 F   0  0  0  0  0  0  0  0  0  0  0  0
   -3.3570   38.9080   23.3990 S   0  0  1  0  0  6  0  0  0  0  0  0
   -3.3850   38.8130   24.9070 O   0  0  0  0  0  0  0  0  0  0  0  0
   -3.7220   37.5060   22.9230 O   0  0  0  0  0  0  0  0  0  0  0  0
   -0.3640   38.2000   24.6290 C   0  0  0  0  0  1  0  0  0  0  0  0
   -0.5000   38.9750   23.3260 C   0  0  0  0  0  0  0  0  0  0  0  0
   -1.7370   39.2440   22.8400 C   0  0  0  0  0  0  0  0  0  0  0  0
   -1.4010   40.1010   21.3890 S   0  0  0  0  0  0  0  0  0  0  0  0
    0.2990   40.0870   21.4510 C   0  0  0  0  0  0  0  0  0  0  0  0
    1.2800   40.6000   20.6020 C   0  0  0  0  0  3  0  0  0  0  0  0
    2.6180   40.4440   20.8970 C   0  0  0  0  0  3  0  0  0  0  0  0
    2.8890   39.7620   22.0650 C   0  0  0  0  0  0  0  0  0  0  0  0
    4.2130   39.6020   22.3650 F   0  0  0  0  0  0  0  0  0  0  0  0
    1.9350   39.2560   22.9030 C   0  0  0  0  0  3  0  0  0  0  0  0
    0.5660   39.4130   22.6050 C   0  0  0  0  0  0  0  0  0  0  0  0
 15 17  1  6
 18 15  1  0
 16 15  1  0
 27 28  2  0
 27 26  1  0
 15  8  1  0
 28 29  1  0
 25 26  1  0
 25 24  1  0
 26 32  2  0
 29 30  1  0
 29 31  2  0
  2  1  1  0
  8  7  2  0
  8  3  1  0
 32 31  1  0
 32 23  1  0
  7  6  1  0
  1  3  1  0
 19  1  1  6
 24 23  2  0
 24 19  1  0
 21 19  2  0
  3  4  2  0
 23 22  1  0
 19 20  2  0
  6  9  1  0
  6  5  2  0
 14  9  1  0
 14 13  2  0
  9 10  2  0
 13 12  1  0
  4  5  1  0
 10 11  1  0
 12 11  2  0
M  RAD  8   4   2   5   2   7   2  10   2  11   2  13   2  14   2  22   2
M  RAD  3  27   2  28   2  31   2
M  END
>  <_TriposChargeType>  (1) 
GASTEIGER

>  <SuCOS_score>  (1) 
0.3076373260846247

>  <Volume_score>  (1) 
0.42371008728317316

>  <Feature_score>  (1) 
0.19156456488607615

$$$$
