DOCK.F10.P4k69/L1006_ligand.pdbt
     RDKit          3D

 42 46  0  0  0  0  0  0  0  0999 V2000
   -2.6630   39.2950   21.1580 C   0  0  0  0  0  3  0  0  0  0  0  0
   -0.4990   39.1110   22.6020 C   0  0  0  0  0  0  0  0  0  0  0  0
   -1.2630   39.4640   21.4800 C   0  0  0  0  0  0  0  0  0  0  0  0
   -0.3520   39.9120   20.5650 N   0  0  0  0  0  0  0  0  0  0  0  0
    0.8840   39.8550   21.0270 C   0  0  0  0  0  0  0  0  0  0  0  0
    2.0900   40.1990   20.4060 C   0  0  0  0  0  3  0  0  0  0  0  0
    3.2750   40.0380   21.0690 C   0  0  0  0  0  0  0  0  0  0  0  0
    4.5800   40.4000   20.4230 C   0  0  0  0  0  1  0  0  0  0  0  0
    3.2150   39.5330   22.3420 C   0  0  0  0  0  3  0  0  0  0  0  0
    2.0290   39.1960   22.9540 C   0  0  0  0  0  3  0  0  0  0  0  0
    0.8240   39.3520   22.3040 C   0  0  0  0  0  0  0  0  0  0  0  0
   -0.5850   40.2720   19.5910 H   0  0  0  0  0  0  0  0  0  0  0  0
   -1.0550   38.6890   23.8610 C   0  0  0  0  0  2  0  0  0  0  0  0
   -0.6580   37.3600   24.4460 C   0  0  1  0  0  0  0  0  0  0  0  0
   -0.0000   36.4780   23.3600 C   0  0  0  0  0  1  0  0  0  0  0  0
    0.2750   37.4200   25.6010 C   0  0  0  0  0  1  0  0  0  0  0  0
   -3.1860   35.6980   26.8500 C   0  0  0  0  0  1  0  0  0  0  0  0
   -2.0200   36.4650   26.2960 C   0  0  0  0  0  0  0  0  0  0  0  0
   -1.2010   37.0000   27.0840 O   0  0  0  0  0  0  0  0  0  0  0  0
   -1.8490   36.5800   24.8720 N   0  0  0  0  0  0  0  0  0  0  0  0
   -2.5090   36.1510   24.2150 H   0  0  0  0  0  0  0  0  0  0  0  0
   -3.0450   37.8360   21.2700 C   0  0  0  0  0  0  0  0  0  0  0  0
   -2.8260   36.7440   20.6090 C   0  0  0  0  0  0  0  0  0  0  0  0
   -2.0950   36.4620   19.4430 O   0  0  0  0  0  0  0  0  0  0  0  0
   -3.6110   35.8850   21.5010 C   0  0  1  0  0  0  0  0  0  0  0  0
   -2.8550   34.8670   22.2980 C   0  0  0  0  0  1  0  0  0  0  0  0
   -3.8540   37.1250   22.2380 C   0  0  0  0  0  0  0  0  0  0  0  0
   -4.4920   37.4460   23.2760 O   0  0  0  0  0  0  0  0  0  0  0  0
   -1.1930   36.0120   19.5850 H   0  0  0  0  0  0  0  0  0  0  0  0
   -4.7870   35.3420   20.7510 C   0  0  0  0  0  0  0  0  0  0  0  0
   -4.8220   34.0380   20.2850 C   0  0  0  0  0  3  0  0  0  0  0  0
   -5.9240   33.5540   19.5940 C   0  0  0  0  0  3  0  0  0  0  0  0
   -7.0140   34.3610   19.3540 C   0  0  0  0  0  0  0  0  0  0  0  0
   -8.2120   33.8420   18.6030 C   0  0  0  0  0  1  0  0  0  0  0  0
   -7.0090   35.6460   19.7990 C   0  0  0  0  0  3  0  0  0  0  0  0
   -5.9030   36.1080   20.4850 C   0  0  0  0  0  3  0  0  0  0  0  0
   -3.6930   40.1330   21.7340 C   0  0  0  0  0  0  0  0  0  0  0  0
   -4.8340   40.3850   21.0300 C   0  0  0  0  0  3  0  0  0  0  0  0
   -5.8380   41.1880   21.5300 C   0  0  0  0  0  3  0  0  0  0  0  0
   -5.7310   41.7790   22.7800 C   0  0  0  0  0  3  0  0  0  0  0  0
   -4.5940   41.5390   23.5040 C   0  0  0  0  0  3  0  0  0  0  0  0
   -3.6000   40.7350   22.9950 C   0  0  0  0  0  3  0  0  0  0  0  0
 34 33  1  0
 33 32  1  0
 33 35  2  0
 24 29  1  0
 24 23  1  0
 12  4  1  0
 32 31  2  0
 35 36  1  0
 31 30  1  0
  6  5  1  0
  6  7  2  0
  8  7  1  0
 36 30  2  0
  4  5  1  0
  4  3  1  0
 23 22  2  0
 23 25  1  0
 30 25  1  0
  5 11  2  0
 38 39  2  0
 38 37  1  0
  7  9  1  0
  1 22  1  0
  1  3  1  0
  1 37  1  0
 22 27  1  0
  3  2  2  0
 25 27  1  0
 25 26  1  1
 39 40  1  0
 37 42  2  0
 27 28  2  0
 11  2  1  0
 11 10  1  0
  9 10  2  0
  2 13  1  0
 40 41  2  0
 42 41  1  0
 14 15  1  6
 13 14  1  0
 21 20  1  0
 14 20  1  0
 14 16  1  0
 20 18  1  0
 18 17  1  0
 18 19  2  0
M  RAD  8   1   2   6   2   8   2   9   2  10   2  13   3  15   2  16   2
M  RAD  8  17   2  26   2  31   2  32   2  34   2  35   2  36   2  38   2
M  RAD  4  39   2  40   2  41   2  42   2
M  END
>  <_TriposChargeType>  (1) 
GASTEIGER

>  <SuCOS_score>  (1) 
0.28567321625919323

>  <Volume_score>  (1) 
0.45600265310634536

>  <Feature_score>  (1) 
0.11534377941204112

$$$$
