DOCK.F10.P4k69/L1005_ligand.pdbt
     RDKit          3D

 31 34  0  0  0  0  0  0  0  0999 V2000
   -4.3210   39.1600   21.4470 C   0  0  0  0  0  0  0  0  0  0  0  0
   -3.2190   40.0440   21.4750 C   0  0  0  0  0  0  0  0  0  0  0  0
   -2.1080   39.3940   21.1580 N   0  0  0  0  0  4  0  0  0  0  0  0
   -2.4470   38.0670   20.9190 C   0  0  0  0  0  0  0  0  0  0  0  0
   -1.6000   37.0300   20.5920 C   0  0  0  0  0  3  0  0  0  0  0  0
   -2.1700   35.7580   20.4360 C   0  0  0  0  0  3  0  0  0  0  0  0
   -3.5230   35.5930   20.6110 C   0  0  0  0  0  0  0  0  0  0  0  0
   -4.1000   34.3510   20.4590 F   0  0  0  0  0  0  0  0  0  0  0  0
   -4.3340   36.6650   20.9400 C   0  0  0  0  0  3  0  0  0  0  0  0
   -3.8080   37.9360   21.1000 C   0  0  0  0  0  0  0  0  0  0  0  0
   -3.4010   41.4470   21.8470 C   0  0  0  0  0  0  0  0  0  0  0  0
   -3.1990   42.4000   21.0170 O   0  0  0  0  0  1  0  0  0  0  0  0
   -3.8000   41.8750   23.0920 O   0  0  0  0  0  0  0  0  0  0  0  0
   -5.6980   39.5470   21.7660 C   0  0  0  0  0  2  0  0  0  0  0  0
   -7.0250   41.4670   20.8190 C   0  0  0  0  0  0  0  0  0  0  0  0
   -6.7650   42.1560   21.8530 O   0  0  0  0  0  0  0  0  0  0  0  0
   -6.4960   40.1500   20.7620 N   0  0  0  0  0  0  0  0  0  0  0  0
   -6.7450   39.6160   19.8640 H   0  0  0  0  0  0  0  0  0  0  0  0
   -8.4000   41.2000   18.8000 C   0  0  0  0  0  1  0  0  0  0  0  0
   -7.8000   42.0010   19.7930 O   0  0  0  0  0  0  0  0  0  0  0  0
   -0.7400   39.8790   21.1030 C   0  0  0  0  0  2  0  0  0  0  0  0
   -0.0010   39.5230   22.2980 C   0  0  0  0  0  0  0  0  0  0  0  0
   -0.6520   39.0010   23.4060 C   0  0  0  0  0  3  0  0  0  0  0  0
   -0.0250   38.5370   24.5400 C   0  0  0  0  0  3  0  0  0  0  0  0
    1.3520   38.6080   24.5520 C   0  0  0  0  0  3  0  0  0  0  0  0
    2.0440   39.1130   23.4980 C   0  0  0  0  0  0  0  0  0  0  0  0
    3.4050   39.2000   23.5980 C   0  0  0  0  0  3  0  0  0  0  0  0
    4.1620   39.7550   22.5730 C   0  0  0  0  0  3  0  0  0  0  0  0
    3.4930   40.2170   21.4440 C   0  0  0  0  0  3  0  0  0  0  0  0
    2.1210   40.1310   21.3360 C   0  0  0  0  0  3  0  0  0  0  0  0
    1.3770   39.5810   22.3490 C   0  0  0  0  0  0  0  0  0  0  0  0
 19 20  1  0
 20 15  1  0
 18 17  1  0
  6  5  2  0
  6  7  1  0
  8  7  1  0
  5  4  1  0
  7  9  2  0
 17 15  1  0
 17 14  1  0
 15 16  2  0
  4 10  2  0
  4  3  1  0
  9 10  1  0
 12 11  1  0
 10  1  1  0
 21  3  1  0
 21 22  1  0
  3  2  1  0
 30 29  1  0
 30 31  2  0
 29 28  2  0
  1  2  2  0
  1 14  1  0
  2 11  1  0
 11 13  2  0
 22 31  1  0
 22 23  2  0
 31 26  1  0
 28 27  1  0
 23 24  1  0
 26 27  2  0
 26 25  1  0
 24 25  2  0
M  RAD  8   5   2   6   2   9   2  14   3  19   2  21   3  23   2  24   2
M  CHG  2   3   1  12  -1
M  RAD  5  25   2  27   2  28   2  29   2  30   2
M  END
>  <_TriposChargeType>  (1) 
GASTEIGER

>  <SuCOS_score>  (1) 
0.36306617518476436

>  <Volume_score>  (1) 
0.5281184399513865

>  <Feature_score>  (1) 
0.19801391041814226

$$$$
