DOCK.F10.P4k69/L1015_ligand.pdbt
     RDKit          3D

 32 35  0  0  0  0  0  0  0  0999 V2000
   -3.5210   41.1990   21.2170 N   0  0  0  0  0  0  0  0  0  0  0  0
   -3.2190   41.5260   20.2730 H   0  0  0  0  0  0  0  0  0  0  0  0
   -4.4750   41.9530   21.9210 C   0  0  0  0  0  0  0  0  0  0  0  0
   -4.2150   42.7820   22.9940 C   0  0  0  0  0  3  0  0  0  0  0  0
   -5.1780   43.5220   23.6530 C   0  0  0  0  0  3  0  0  0  0  0  0
   -6.4790   43.4490   23.2360 C   0  0  0  0  0  0  0  0  0  0  0  0
   -6.7730   42.6300   22.1660 C   0  0  0  0  0  3  0  0  0  0  0  0
   -5.8240   41.9090   21.5280 C   0  0  0  0  0  0  0  0  0  0  0  0
   -7.5590   44.2020   23.8820 C   0  0  0  0  0  0  0  0  0  0  0  0
   -7.6470   45.5790   23.7930 C   0  0  0  0  0  3  0  0  0  0  0  0
   -8.6850   46.2560   24.4190 C   0  0  0  0  0  3  0  0  0  0  0  0
   -9.5970   45.5700   25.1070 N   0  0  0  0  0  0  0  0  0  0  0  0
   -9.5520   44.2290   25.2210 C   0  0  0  0  0  3  0  0  0  0  0  0
   -8.5310   43.5540   24.6060 C   0  0  0  0  0  3  0  0  0  0  0  0
   -6.2460   40.8880   20.1780 S   0  0  1  0  0  6  0  0  0  0  0  0
   -7.8040   41.4380   19.5280 C   0  0  0  0  0  1  0  0  0  0  0  0
   -5.1970   41.0040   19.1110 O   0  0  0  0  0  0  0  0  0  0  0  0
   -6.2980   39.4390   20.5780 O   0  0  0  0  0  0  0  0  0  0  0  0
   -2.8490   39.7790   21.8610 S   0  0  2  0  0  6  0  0  0  0  0  0
   -3.2930   38.6050   20.9990 O   0  0  0  0  0  0  0  0  0  0  0  0
   -3.4100   39.5060   23.2320 O   0  0  0  0  0  0  0  0  0  0  0  0
   -0.8070   38.6200   24.0630 C   0  0  0  0  0  1  0  0  0  0  0  0
   -0.2300   39.3390   22.8510 C   0  0  0  0  0  0  0  0  0  0  0  0
   -1.1030   39.8280   21.9230 C   0  0  0  0  0  0  0  0  0  0  0  0
   -0.0950   40.5380   20.7620 S   0  0  0  0  0  0  0  0  0  0  0  0
    1.4300   40.2010   21.4790 C   0  0  0  0  0  0  0  0  0  0  0  0
    2.7480   40.4790   21.1020 C   0  0  0  0  0  3  0  0  0  0  0  0
    3.8030   40.0780   21.8930 C   0  0  0  0  0  3  0  0  0  0  0  0
    3.4540   39.4050   23.0430 C   0  0  0  0  0  0  0  0  0  0  0  0
    4.4840   39.0000   23.8400 F   0  0  0  0  0  0  0  0  0  0  0  0
    2.1740   39.1250   23.4270 C   0  0  0  0  0  3  0  0  0  0  0  0
    1.0850   39.5330   22.6210 C   0  0  0  0  0  0  0  0  0  0  0  0
 17 15  2  0
 15 16  1  6
 15 18  2  0
 15  8  1  0
  2  1  1  0
 25 26  1  0
 25 24  1  0
 20 19  2  0
 27 26  1  0
 27 28  2  0
 19  1  1  6
  1  3  1  0
 26 32  2  0
  8  3  1  0
  8  7  2  0
 19 24  1  0
 19 21  2  0
 28 29  1  0
  3  4  2  0
 24 23  2  0
  7  6  1  0
 32 23  1  0
 32 31  1  0
 23 22  1  0
  4  5  1  0
 29 31  2  0
 29 30  1  0
  6  5  2  0
  6  9  1  0
 10  9  2  0
 10 11  1  0
  9 14  1  0
 11 12  2  0
 14 13  2  0
 12 13  1  0
M  RAD  8   4   2   5   2   7   2  10   2  11   2  13   2  14   2  16   2
M  RAD  4  22   2  27   2  28   2  31   2
M  END
>  <_TriposChargeType>  (1) 
GASTEIGER

>  <SuCOS_score>  (1) 
0.3634725825763039

>  <Volume_score>  (1) 
0.4695613744337642

>  <Feature_score>  (1) 
0.2573837907188436

$$$$
