DOCK.F10.P4k69/L1012_ligand.pdbt
     RDKit          3D

 30 32  0  0  0  0  0  0  0  0999 V2000
   -4.6190   39.7600   22.9360 N   0  0  0  0  0  0  0  0  0  0  0  0
   -5.3130   39.4680   22.2030 H   0  0  0  0  0  0  0  0  0  0  0  0
   -4.9740   43.5780   24.6380 C   0  0  0  0  0  0  0  0  0  0  0  0
   -4.8000   42.4880   25.4640 C   0  0  0  0  0  3  0  0  0  0  0  0
   -4.6810   41.2270   24.8900 C   0  0  0  0  0  3  0  0  0  0  0  0
   -4.7300   41.0300   23.5330 C   0  0  0  0  0  0  0  0  0  0  0  0
   -4.9040   42.1330   22.7270 C   0  0  0  0  0  0  0  0  0  0  0  0
   -5.0270   43.4030   23.2540 C   0  0  0  0  0  3  0  0  0  0  0  0
   -4.9740   41.9260   20.9930 S   0  0  2  0  0  6  0  0  0  0  0  0
   -6.6610   42.0310   20.4240 C   0  0  0  0  0  1  0  0  0  0  0  0
   -4.4810   40.5490   20.5860 O   0  0  0  0  0  0  0  0  0  0  0  0
   -4.2030   42.9950   20.2830 O   0  0  0  0  0  0  0  0  0  0  0  0
   -5.1020   44.9160   25.2040 C   0  0  0  0  0  0  0  0  0  0  0  0
   -6.1820   45.3020   25.7120 O   0  0  0  0  0  0  0  0  0  0  0  0
   -4.1270   47.0490   24.5660 C   0  0  0  0  0  1  0  0  0  0  0  0
   -4.0280   45.7760   25.1840 O   0  0  0  0  0  0  0  0  0  0  0  0
   -3.3800   38.6880   23.3820 S   0  0  2  0  0  6  0  0  0  0  0  0
   -3.6540   37.3070   22.8560 O   0  0  0  0  0  0  0  0  0  0  0  0
   -3.3600   38.5610   24.8870 O   0  0  0  0  0  0  0  0  0  0  0  0
   -1.7970   39.1390   22.7810 C   0  0  0  0  0  0  0  0  0  0  0  0
   -1.4450   40.0270   21.3760 S   0  0  0  0  0  0  0  0  0  0  0  0
    0.2570   40.0500   21.4730 C   0  0  0  0  0  0  0  0  0  0  0  0
    1.2630   40.6000   20.6670 C   0  0  0  0  0  3  0  0  0  0  0  0
    2.5980   40.4520   21.0110 C   0  0  0  0  0  3  0  0  0  0  0  0
    2.8360   39.7510   22.1630 C   0  0  0  0  0  0  0  0  0  0  0  0
    4.1530   39.5980   22.5130 F   0  0  0  0  0  0  0  0  0  0  0  0
    1.8750   39.2060   22.9630 C   0  0  0  0  0  3  0  0  0  0  0  0
    0.5100   39.3530   22.6200 C   0  0  0  0  0  0  0  0  0  0  0  0
   -0.5590   38.8760   23.3010 C   0  0  0  0  0  0  0  0  0  0  0  0
   -0.4870   38.0760   24.5990 C   0  0  0  0  0  1  0  0  0  0  0  0
 12  9  2  0
  9 10  1  6
 11  9  2  0
 23 24  1  0
 23 22  2  0
  9  7  1  0
 24 25  2  0
 21 22  1  0
 21 20  1  0
 22 28  1  0
 25 26  1  0
 25 27  1  0
  2  1  1  0
 28 27  2  0
 28 29  1  0
  7  8  1  0
  7  6  2  0
 20 29  2  0
 20 17  1  0
 18 17  2  0
 17  1  1  1
  1  6  1  0
  8  3  2  0
 29 30  1  0
 17 19  2  0
  6  5  1  0
 15 16  1  0
  3 13  1  0
  3  4  1  0
  5  4  2  0
 16 13  1  0
 13 14  2  0
M  RAD  8   4   2   5   2   8   2  10   2  15   2  23   2  24   2  27   2
M  RAD  1  30   2
M  END
>  <_TriposChargeType>  (1) 
GASTEIGER

>  <SuCOS_score>  (1) 
0.30400122948611086

>  <Volume_score>  (1) 
0.45475638051044087

>  <Feature_score>  (1) 
0.1532460784617809

$$$$
