DOCK.F10.P4k69/L1013_ligand.pdbt
     RDKit          3D

 27 30  0  0  0  0  0  0  0  0999 V2000
   -4.3930   39.2860   21.4640 N   0  0  0  0  0  4  0  0  0  0  0  0
   -3.3250   40.1280   21.5680 C   0  0  0  0  0  0  0  0  0  0  0  0
   -2.1500   39.4670   21.2900 C   0  0  0  0  0  0  0  0  0  0  0  0
   -2.5710   38.1480   21.0030 C   0  0  0  0  0  0  0  0  0  0  0  0
   -1.8740   37.0190   20.6290 C   0  0  0  0  0  3  0  0  0  0  0  0
   -2.5300   35.8300   20.3750 C   0  0  0  0  0  3  0  0  0  0  0  0
   -3.8950   35.7680   20.4960 C   0  0  0  0  0  3  0  0  0  0  0  0
   -4.6060   36.8810   20.8660 C   0  0  0  0  0  3  0  0  0  0  0  0
   -3.9190   38.0840   21.1180 C   0  0  0  0  0  0  0  0  0  0  0  0
   -3.5080   41.5410   21.9040 C   0  0  0  0  0  0  0  0  0  0  0  0
   -3.2000   42.4000   21.0010 O   0  0  0  0  0  1  0  0  0  0  0  0
   -3.9790   42.0210   23.1050 O   0  0  0  0  0  0  0  0  0  0  0  0
   -5.8090   39.5600   21.6780 C   0  0  0  0  0  2  0  0  0  0  0  0
   -6.5390   39.7120   20.3680 C   0  0  0  0  0  2  0  0  0  0  0  0
   -7.8000   41.4000   19.3960 C   0  0  0  0  0  1  0  0  0  0  0  0
   -6.5580   40.9820   19.8580 O   0  0  0  0  0  0  0  0  0  0  0  0
   -0.7640   39.9450   21.2010 C   0  0  0  0  0  2  0  0  0  0  0  0
    0.2450   39.6010   22.1460 C   0  0  0  0  0  0  0  0  0  0  0  0
   -0.0970   39.1480   23.4380 C   0  0  0  0  0  3  0  0  0  0  0  0
    0.8000   38.8590   24.4130 C   0  0  0  0  0  3  0  0  0  0  0  0
    2.1370   39.0000   24.1810 C   0  0  0  0  0  3  0  0  0  0  0  0
    2.5430   39.4370   22.9480 C   0  0  0  0  0  0  0  0  0  0  0  0
    3.9010   39.5940   22.6980 C   0  0  0  0  0  3  0  0  0  0  0  0
    4.3710   40.0390   21.4750 C   0  0  0  0  0  3  0  0  0  0  0  0
    3.4550   40.3230   20.5130 C   0  0  0  0  0  3  0  0  0  0  0  0
    2.1200   40.1640   20.7730 C   0  0  0  0  0  3  0  0  0  0  0  0
    1.5970   39.7270   21.9610 C   0  0  0  0  0  0  0  0  0  0  0  0
 15 16  1  0
 16 14  1  0
 14 13  1  0
  6  7  2  0
  6  5  1  0
  7  8  1  0
 25 26  1  0
 25 24  2  0
  5  4  2  0
 26 27  2  0
  8  9  2  0
 11 10  1  0
  4  9  1  0
  4  3  1  0
  9  1  1  0
 17  3  1  0
 17 18  1  0
  3  2  2  0
  1  2  1  0
  1 13  1  0
 24 23  1  0
  2 10  1  0
 10 12  2  0
 27 18  1  0
 27 22  1  0
 18 19  2  0
 23 22  2  0
 22 21  1  0
 19 20  1  0
 21 20  2  0
M  RAD  8   5   2   6   2   7   2   8   2  13   3  14   3  15   2  17   3
M  CHG  2   1   1  11  -1
M  RAD  7  19   2  20   2  21   2  23   2  24   2  25   2  26   2
M  END
>  <_TriposChargeType>  (1) 
GASTEIGER

>  <SuCOS_score>  (1) 
0.3481711497227567

>  <Volume_score>  (1) 
0.494199535962877

>  <Feature_score>  (1) 
0.2021427634826364

$$$$
