DOCK.F10.P4k69/L1017_ligand.pdbt
     RDKit          3D

 31 34  0  0  0  0  0  0  0  0999 V2000
   -4.3360   39.2910   21.3250 C   0  0  0  0  0  0  0  0  0  0  0  0
   -3.2680   40.1310   21.5290 C   0  0  0  0  0  0  0  0  0  0  0  0
   -2.1060   39.5090   21.3650 N   0  0  0  0  0  4  0  0  0  0  0  0
   -2.3730   38.2400   21.0520 C   0  0  0  0  0  0  0  0  0  0  0  0
   -1.6030   37.1130   20.7790 C   0  0  0  0  0  3  0  0  0  0  0  0
   -2.0910   35.8760   20.4820 C   0  0  0  0  0  3  0  0  0  0  0  0
   -3.4810   35.7070   20.4480 C   0  0  0  0  0  0  0  0  0  0  0  0
   -4.0020   34.5030   20.1830 F   0  0  0  0  0  0  0  0  0  0  0  0
   -4.2820   36.8040   20.7070 C   0  0  0  0  0  3  0  0  0  0  0  0
   -3.7720   38.0490   21.0050 C   0  0  0  0  0  0  0  0  0  0  0  0
   -3.4850   41.5860   21.8350 C   0  0  0  0  0  0  0  0  0  0  0  0
   -3.8000   41.9000   23.0010 O   0  0  0  0  0  1  0  0  0  0  0  0
   -3.3790   42.5990   20.9180 O   0  0  0  0  0  0  0  0  0  0  0  0
   -5.7260   39.4680   21.7090 C   0  0  0  0  0  2  0  0  0  0  0  0
   -6.7670   39.4340   20.7480 N   0  0  0  0  0  0  0  0  0  0  0  0
   -7.6870   39.0940   20.9270 H   0  0  0  0  0  0  0  0  0  0  0  0
   -8.1980   41.1950   19.0040 C   0  0  0  0  0  1  0  0  0  0  0  0
   -6.7920   41.0480   20.0650 S   0  0  2  0  0  6  0  0  0  0  0  0
   -5.5420   41.3960   19.4020 O   0  0  0  0  0  0  0  0  0  0  0  0
   -7.0200   42.0310   21.2430 O   0  0  0  0  0  0  0  0  0  0  0  0
   -0.8020   40.1200   21.3610 C   0  0  0  0  0  2  0  0  0  0  0  0
    0.0800   39.6260   22.4200 C   0  0  0  0  0  0  0  0  0  0  0  0
   -0.3580   39.0900   23.5780 C   0  0  0  0  0  3  0  0  0  0  0  0
    0.5010   38.6690   24.5590 C   0  0  0  0  0  3  0  0  0  0  0  0
    1.8690   38.7840   24.3910 C   0  0  0  0  0  3  0  0  0  0  0  0
    2.3260   39.3460   23.1850 C   0  0  0  0  0  0  0  0  0  0  0  0
    3.6860   39.4610   22.9980 C   0  0  0  0  0  3  0  0  0  0  0  0
    4.1630   39.9970   21.8270 C   0  0  0  0  0  3  0  0  0  0  0  0
    3.3200   40.4190   20.8350 C   0  0  0  0  0  3  0  0  0  0  0  0
    1.9900   40.2850   21.0480 C   0  0  0  0  0  3  0  0  0  0  0  0
    1.4390   39.7470   22.2390 C   0  0  0  0  0  0  0  0  0  0  0  0
 18 17  1  6
 19 18  2  0
 18 15  1  0
 18 20  2  0
  8  7  1  0
  7  6  2  0
  7  9  1  0
  6  5  1  0
  9 10  2  0
 15 16  1  0
 15 14  1  0
  5  4  2  0
 29 30  1  0
 29 28  2  0
 13 11  2  0
 10  4  1  0
 10  1  1  0
 30 31  2  0
  4  3  1  0
  1  2  2  0
  1 14  1  0
 21  3  1  0
 21 22  1  0
  3  2  1  0
  2 11  1  0
 28 27  1  0
 11 12  1  0
 31 22  1  0
 31 26  1  0
 22 23  2  0
 27 26  2  0
 26 25  1  0
 23 24  1  0
 25 24  2  0
M  RAD  8   5   2   6   2   9   2  14   3  17   2  21   3  23   2  24   2
M  CHG  2   3   1  12  -1
M  RAD  5  25   2  27   2  28   2  29   2  30   2
M  END
>  <_TriposChargeType>  (1) 
GASTEIGER

>  <SuCOS_score>  (1) 
0.3487607569576829

>  <Volume_score>  (1) 
0.5245829190144735

>  <Feature_score>  (1) 
0.17293859490089225

$$$$
