DOCK.F10.P4k69/L1010_ligand.pdbt
     RDKit          3D

 24 27  0  0  0  0  0  0  0  0999 V2000
   -3.3140   39.9320   21.6050 C   0  0  0  0  0  0  0  0  0  0  0  0
   -4.3930   39.1040   21.3790 C   0  0  0  0  0  3  0  0  0  0  0  0
   -3.8810   37.8860   21.0000 C   0  0  0  0  0  0  0  0  0  0  0  0
   -4.4990   36.6780   20.6480 C   0  0  0  0  0  3  0  0  0  0  0  0
   -3.7670   35.5700   20.2980 C   0  0  0  0  0  3  0  0  0  0  0  0
   -2.4070   35.6710   20.2980 C   0  0  0  0  0  3  0  0  0  0  0  0
   -1.7950   36.8580   20.6430 C   0  0  0  0  0  3  0  0  0  0  0  0
   -2.5250   37.9900   21.0010 C   0  0  0  0  0  0  0  0  0  0  0  0
   -2.1910   39.2340   21.3690 N   0  0  0  0  0  0  0  0  0  0  0  0
   -3.8000   41.5580   23.2010 O   0  0  0  0  0  1  0  0  0  0  0  0
   -3.4380   41.3260   22.0290 C   0  0  0  0  0  0  0  0  0  0  0  0
   -3.1740   42.4000   21.1990 O   0  0  0  0  0  0  0  0  0  0  0  0
   -0.8570   39.7180   21.4860 C   0  0  0  0  0  2  0  0  0  0  0  0
   -0.1350   39.2460   22.6680 C   0  0  0  0  0  0  0  0  0  0  0  0
   -0.7510   38.6500   23.7430 C   0  0  0  0  0  3  0  0  0  0  0  0
    0.0340   38.2470   24.7990 C   0  0  0  0  0  3  0  0  0  0  0  0
    1.4010   38.4170   24.8220 C   0  0  0  0  0  3  0  0  0  0  0  0
    2.0330   39.0210   23.7360 C   0  0  0  0  0  0  0  0  0  0  0  0
    3.4000   39.2000   23.7390 C   0  0  0  0  0  3  0  0  0  0  0  0
    3.9930   39.8000   22.6500 C   0  0  0  0  0  3  0  0  0  0  0  0
    3.2510   40.2130   21.5820 C   0  0  0  0  0  0  0  0  0  0  0  0
    3.8000   40.8100   20.4860 F   0  0  0  0  0  0  0  0  0  0  0  0
    1.8950   40.0180   21.6160 C   0  0  0  0  0  3  0  0  0  0  0  0
    1.2340   39.4150   22.6930 C   0  0  0  0  0  0  0  0  0  0  0  0
  5  6  2  0
  5  4  1  0
  6  7  1  0
 22 21  1  0
  7  8  2  0
  4  3  2  0
  3  8  1  0
  3  2  1  0
  8  9  1  0
 12 11  2  0
  9 13  1  0
  9  1  1  0
  2  1  2  0
 13 14  1  0
 21 23  1  0
 21 20  2  0
  1 11  1  0
 23 24  2  0
 11 10  1  0
 20 19  1  0
 14 24  1  0
 14 15  2  0
 24 18  1  0
 18 19  2  0
 18 17  1  0
 15 16  1  0
 16 17  2  0
M  RAD  8   2   2   4   2   5   2   6   2   7   2  13   3  15   2  16   2
M  CHG  1  10  -1
M  RAD  4  17   2  19   2  20   2  23   2
M  END
>  <_TriposChargeType>  (1) 
GASTEIGER

>  <SuCOS_score>  (1) 
0.3369468798722673

>  <Volume_score>  (1) 
0.4247044525466799

>  <Feature_score>  (1) 
0.2491893071978547

$$$$
