DOCK.F40.P4k60/L1004_ligand.pdbt
     RDKit          3D

 33 36  0  0  0  0  0  0  0  0999 V2000
   -3.0080   39.0230   22.9580 C   0  0  0  0  0  3  0  0  0  0  0  0
   -0.4750   38.8450   23.4040 C   0  0  0  0  0  0  0  0  0  0  0  0
   -1.6020   39.2680   22.7110 C   0  0  0  0  0  0  0  0  0  0  0  0
   -1.1600   39.9700   21.6280 N   0  0  0  0  0  0  0  0  0  0  0  0
    0.1770   40.0200   21.5840 C   0  0  0  0  0  0  0  0  0  0  0  0
    1.0720   40.6010   20.7050 C   0  0  0  0  0  3  0  0  0  0  0  0
    2.4350   40.5040   20.9010 C   0  0  0  0  0  3  0  0  0  0  0  0
    2.8900   39.8100   22.0010 C   0  0  0  0  0  0  0  0  0  0  0  0
    4.2250   39.6970   22.2110 F   0  0  0  0  0  0  0  0  0  0  0  0
    1.9710   39.2320   22.8740 C   0  0  0  0  0  3  0  0  0  0  0  0
    0.6090   39.3080   22.7090 C   0  0  0  0  0  0  0  0  0  0  0  0
   -1.7570   40.4400   20.8810 H   0  0  0  0  0  0  0  0  0  0  0  0
   -0.3300   36.6190   24.5790 C   0  0  0  0  0  1  0  0  0  0  0  0
   -0.5400   38.1100   24.6500 C   0  0  0  0  0  3  0  0  0  0  0  0
    0.5990   38.6000   25.5920 C   0  0  0  0  0  1  0  0  0  0  0  0
   -3.8000   40.2920   23.2190 C   0  0  0  0  0  0  0  0  0  0  0  0
   -3.8000   41.4220   22.5430 C   0  0  0  0  0  0  0  0  0  0  0  0
   -3.0050   41.6190   21.3990 O   0  0  0  0  0  0  0  0  0  0  0  0
   -4.7210   42.4230   23.1290 C   0  0  0  0  0  3  0  0  0  0  0  0
   -5.2690   41.7830   24.2780 N   0  0  0  0  0  0  0  0  0  0  0  0
   -4.7230   40.4800   24.3340 C   0  0  0  0  0  0  0  0  0  0  0  0
   -4.9550   39.5640   25.1950 O   0  0  0  0  0  0  0  0  0  0  0  0
   -3.4420   41.8930   20.5230 H   0  0  0  0  0  0  0  0  0  0  0  0
   -5.9460   42.2120   24.9410 H   0  0  0  0  0  0  0  0  0  0  0  0
   -5.7730   42.8790   22.1460 C   0  0  0  0  0  3  0  0  0  0  0  0
   -6.6990   41.7350   21.7770 C   0  0  0  0  0  1  0  0  0  0  0  0
   -6.6000   43.9520   22.8020 C   0  0  0  0  0  1  0  0  0  0  0  0
   -3.7220   38.1010   22.0760 C   0  0  0  0  0  0  0  0  0  0  0  0
   -3.1110   37.0570   21.4050 C   0  0  0  0  0  3  0  0  0  0  0  0
   -3.8230   36.1910   20.5980 C   0  0  0  0  0  3  0  0  0  0  0  0
   -5.1820   36.3310   20.4240 C   0  0  0  0  0  3  0  0  0  0  0  0
   -5.7990   37.3650   21.0860 C   0  0  0  0  0  3  0  0  0  0  0  0
   -5.0810   38.2160   21.8840 C   0  0  0  0  0  3  0  0  0  0  0  0
 31 30  1  0
 31 32  2  0
 23 18  1  0
 30 29  2  0
  6  7  2  0
  6  5  1  0
 12  4  1  0
  7  8  1  0
 32 33  1  0
 18 17  1  0
 29 28  1  0
  5  4  1  0
  5 11  2  0
  4  3  1  0
 26 25  1  0
 33 28  2  0
  8  9  1  0
  8 10  2  0
 28  1  1  0
 25 27  1  0
 25 19  1  0
 17 19  1  0
 17 16  2  0
 11 10  1  0
 11  2  1  0
  3  1  1  0
  3  2  2  0
  1 16  1  0
 19 20  1  0
 16 21  1  0
  2 14  1  0
 20 21  1  0
 20 24  1  0
 21 22  2  0
 13 14  1  0
 14 15  1  0
M  RAD  8   1   2   6   2   7   2  10   2  13   2  14   2  15   2  19   2
M  RAD  8  25   2  26   2  27   2  29   2  30   2  31   2  32   2  33   2
M  END
>  <_TriposChargeType>  (1) 
GASTEIGER

>  <SuCOS_score>  (1) 
0.2947316849763203

>  <Volume_score>  (1) 
0.4842558833278091

>  <Feature_score>  (1) 
0.10520748662483154

$$$$
