DOCK.F40.P4k60/L1007_ligand.pdbt
     RDKit          3D

 31 35  0  0  0  0  0  0  0  0999 V2000
   -2.6490   38.1880   22.5950 C   0  0  0  0  0  3  0  0  0  0  0  0
   -1.2560   38.6210   22.6170 C   0  0  0  0  0  0  0  0  0  0  0  0
   -0.6200   38.6200   23.8710 C   0  0  0  0  0  3  0  0  0  0  0  0
    0.6830   39.0010   24.0520 C   0  0  0  0  0  3  0  0  0  0  0  0
    1.4140   39.4070   22.9580 C   0  0  0  0  0  0  0  0  0  0  0  0
    2.7400   39.7970   23.1240 C   0  0  0  0  0  3  0  0  0  0  0  0
    3.4640   40.2010   22.0300 C   0  0  0  0  0  3  0  0  0  0  0  0
    2.8440   40.2020   20.8020 C   0  0  0  0  0  3  0  0  0  0  0  0
    1.5400   39.8190   20.6320 C   0  0  0  0  0  3  0  0  0  0  0  0
    0.7880   39.4070   21.7250 C   0  0  0  0  0  0  0  0  0  0  0  0
   -0.5240   39.0220   21.5470 C   0  0  0  0  0  3  0  0  0  0  0  0
   -4.9990   41.8730   23.6240 C   0  0  0  0  0  1  0  0  0  0  0  0
   -4.9850   40.8160   22.5090 C   0  0  2  0  0  0  0  0  0  0  0  0
   -5.0030   39.4800   23.0430 C   0  0  0  0  0  0  0  0  0  0  0  0
   -5.8530   38.8030   23.6530 O   0  0  0  0  0  0  0  0  0  0  0  0
   -3.6620   39.2890   22.5780 C   0  0  0  0  0  0  0  0  0  0  0  0
   -3.6430   40.5090   22.0910 C   0  0  0  0  0  0  0  0  0  0  0  0
   -2.6840   41.2730   21.4050 O   0  0  0  0  0  0  0  0  0  0  0  0
   -1.8580   41.5340   21.9310 H   0  0  0  0  0  0  0  0  0  0  0  0
   -5.9630   41.1390   21.4430 C   0  0  0  0  0  0  0  0  0  0  0  0
   -6.3870   40.1180   20.6250 C   0  0  0  0  0  3  0  0  0  0  0  0
   -7.2970   40.3250   19.6040 C   0  0  0  0  0  3  0  0  0  0  0  0
   -7.8060   41.5800   19.3800 C   0  0  0  0  0  3  0  0  0  0  0  0
   -7.3780   42.6010   20.2020 C   0  0  0  0  0  3  0  0  0  0  0  0
   -6.4670   42.3830   21.2210 C   0  0  0  0  0  3  0  0  0  0  0  0
   -2.8430   37.1800   21.5380 C   0  0  0  0  0  0  0  0  0  0  0  0
   -4.0830   36.6330   21.2910 C   0  0  0  0  0  3  0  0  0  0  0  0
   -4.3040   35.6840   20.3290 C   0  0  0  0  0  3  0  0  0  0  0  0
   -3.2510   35.2490   19.5660 C   0  0  0  0  0  3  0  0  0  0  0  0
   -2.0030   35.7880   19.8010 C   0  0  0  0  0  3  0  0  0  0  0  0
   -1.7740   36.7470   20.7740 C   0  0  0  0  0  3  0  0  0  0  0  0
 23 22  1  0
 23 24  2  0
 29 30  2  0
 29 28  1  0
 22 21  2  0
 30 31  1  0
 24 25  1  0
 28 27  2  0
 21 20  1  0
  9  8  2  0
  9 10  1  0
 31 26  2  0
  8  7  1  0
 25 20  2  0
 27 26  1  0
 18 19  1  0
 18 17  1  0
 20 13  1  0
 26  1  1  0
 11 10  2  0
 11  2  1  0
 10  5  1  0
  7  6  2  0
 17 13  1  0
 17 16  2  0
 13 14  1  0
 13 12  1  1
 16  1  1  0
 16 14  1  0
  1  2  1  0
  2  3  2  0
  5  6  1  0
  5  4  2  0
 14 15  2  0
  3  4  1  0
M  RAD  8   1   2   3   2   4   2   6   2   7   2   8   2   9   2  11   2
M  RAD  8  12   2  21   2  22   2  23   2  24   2  25   2  27   2  28   2
M  RAD  3  29   2  30   2  31   2
M  END
>  <_TriposChargeType>  (1) 
GASTEIGER

>  <SuCOS_score>  (1) 
0.3338511879572438

>  <Volume_score>  (1) 
0.5283394100099437

>  <Feature_score>  (1) 
0.13936296590454392

$$$$
