DOCK.F40.P4k60/L1011_ligand.pdbt
     RDKit          3D

 30 33  0  0  0  0  0  0  0  0999 V2000
   -4.3610   38.4940   21.6140 C   0  0  0  0  0  0  0  0  0  0  0  0
   -3.2610   39.3420   21.6830 C   0  0  0  0  0  0  0  0  0  0  0  0
   -2.1800   38.6650   21.1840 N   0  0  0  0  0  4  0  0  0  0  0  0
   -2.5560   37.4310   20.8010 C   0  0  0  0  0  0  0  0  0  0  0  0
   -1.8930   36.3560   20.2340 C   0  0  0  0  0  3  0  0  0  0  0  0
   -2.5260   35.1700   19.9210 C   0  0  0  0  0  3  0  0  0  0  0  0
   -3.8780   35.0850   20.1990 C   0  0  0  0  0  0  0  0  0  0  0  0
   -4.5090   33.9240   19.9010 F   0  0  0  0  0  0  0  0  0  0  0  0
   -4.5470   36.1390   20.7600 C   0  0  0  0  0  3  0  0  0  0  0  0
   -3.8960   37.3170   21.0630 C   0  0  0  0  0  0  0  0  0  0  0  0
   -3.3620   40.7070   22.1610 C   0  0  0  0  0  0  0  0  0  0  0  0
   -3.8010   40.9580   23.3300 O   0  0  0  0  0  1  0  0  0  0  0  0
   -3.0000   41.8070   21.4000 O   0  0  0  0  0  0  0  0  0  0  0  0
   -5.7650   38.7700   22.0050 C   0  0  0  0  0  2  0  0  0  0  0  0
   -7.7950   40.8000   19.4250 C   0  0  0  0  0  1  0  0  0  0  0  0
   -6.9670   40.5350   20.5970 N   0  0  0  0  0  0  0  0  0  0  0  0
   -6.5980   41.6580   21.4010 C   0  0  0  0  0  1  0  0  0  0  0  0
   -6.5800   39.2080   20.8620 C   0  0  0  0  0  0  0  0  0  0  0  0
   -6.9560   38.2890   20.0600 O   0  0  0  0  0  0  0  0  0  0  0  0
   -0.8520   39.2350   21.1630 C   0  0  0  0  0  2  0  0  0  0  0  0
   -0.1690   38.9550   22.4520 C   0  0  0  0  0  0  0  0  0  0  0  0
   -0.8820   38.3740   23.4960 C   0  0  0  0  0  3  0  0  0  0  0  0
   -0.2460   37.9900   24.6680 C   0  0  0  0  0  3  0  0  0  0  0  0
    1.1040   38.1860   24.7940 C   0  0  0  0  0  3  0  0  0  0  0  0
    1.8590   38.7560   23.8000 C   0  0  0  0  0  0  0  0  0  0  0  0
    3.2270   38.9780   24.0000 C   0  0  0  0  0  3  0  0  0  0  0  0
    3.9290   39.6010   22.9910 C   0  0  0  0  0  3  0  0  0  0  0  0
    3.3480   40.0000   21.8230 C   0  0  0  0  0  3  0  0  0  0  0  0
    1.9690   39.7530   21.6700 C   0  0  0  0  0  3  0  0  0  0  0  0
    1.2080   39.1370   22.6320 C   0  0  0  0  0  0  0  0  0  0  0  0
 15 16  1  0
  8  7  1  0
  6  7  2  0
  6  5  1  0
 19 18  2  0
  7  9  1  0
  5  4  2  0
 16 18  1  0
 16 17  1  0
  9 10  2  0
  4 10  1  0
  4  3  1  0
 18 14  1  0
 10  1  1  0
 20  3  1  0
 20 21  1  0
  3  2  1  0
 13 11  2  0
  1  2  2  0
  1 14  1  0
 29 28  1  0
 29 30  2  0
  2 11  1  0
 28 27  2  0
 11 12  1  0
 21 30  1  0
 21 22  2  0
 30 25  1  0
 27 26  1  0
 22 23  1  0
 25 26  2  0
 25 24  1  0
 23 24  2  0
M  RAD  8   5   2   6   2   9   2  14   3  15   2  17   2  20   3  22   2
M  CHG  2   3   1  12  -1
M  RAD  6  23   2  24   2  26   2  27   2  28   2  29   2
M  END
>  <_TriposChargeType>  (1) 
GASTEIGER

>  <SuCOS_score>  (1) 
0.351286446944686

>  <Volume_score>  (1) 
0.522815158546017

>  <Feature_score>  (1) 
0.17975773534335499

$$$$
