DOCK.F10.P2hvx/L1004_ligand.pdbt
     RDKit          3D

 33 36  0  0  0  0  0  0  0  0999 V2000
   -2.6390   38.0540   22.3100 C   0  0  0  0  0  3  0  0  0  0  0  0
   -0.2740   38.3080   23.3020 C   0  0  0  0  0  0  0  0  0  0  0  0
   -1.2710   38.5260   22.3610 C   0  0  0  0  0  0  0  0  0  0  0  0
   -0.7170   39.2750   21.3640 N   0  0  0  0  0  0  0  0  0  0  0  0
    0.5710   39.5470   21.6080 C   0  0  0  0  0  0  0  0  0  0  0  0
    1.5340   40.2560   20.9160 C   0  0  0  0  0  3  0  0  0  0  0  0
    2.8170   40.3910   21.4070 C   0  0  0  0  0  3  0  0  0  0  0  0
    3.1210   39.8000   22.6140 C   0  0  0  0  0  0  0  0  0  0  0  0
    4.3760   39.9150   23.1140 F   0  0  0  0  0  0  0  0  0  0  0  0
    2.1350   39.0910   23.2970 C   0  0  0  0  0  3  0  0  0  0  0  0
    0.8500   38.9350   22.8360 C   0  0  0  0  0  0  0  0  0  0  0  0
   -1.2000   39.6270   20.4820 H   0  0  0  0  0  0  0  0  0  0  0  0
   -0.4010   36.0890   24.4930 C   0  0  0  0  0  1  0  0  0  0  0  0
   -0.4960   37.5920   24.5420 C   0  0  0  0  0  3  0  0  0  0  0  0
    0.6000   38.0000   25.5710 C   0  0  0  0  0  1  0  0  0  0  0  0
   -3.6610   39.1770   22.3100 C   0  0  0  0  0  0  0  0  0  0  0  0
   -3.7740   40.1940   21.4800 C   0  0  0  0  0  0  0  0  0  0  0  0
   -2.8940   40.3890   20.4000 O   0  0  0  0  0  0  0  0  0  0  0  0
   -4.9140   41.0730   21.8270 C   0  0  0  0  0  3  0  0  0  0  0  0
   -5.4770   40.4910   23.0000 N   0  0  0  0  0  0  0  0  0  0  0  0
   -4.7270   39.3290   23.2950 C   0  0  0  0  0  0  0  0  0  0  0  0
   -4.9000   38.5010   24.2530 O   0  0  0  0  0  0  0  0  0  0  0  0
   -3.2660   40.4660   19.4560 H   0  0  0  0  0  0  0  0  0  0  0  0
   -6.2900   40.8670   23.5280 H   0  0  0  0  0  0  0  0  0  0  0  0
   -5.9050   41.1990   20.6950 C   0  0  0  0  0  3  0  0  0  0  0  0
   -6.8030   39.9780   20.6220 C   0  0  0  0  0  1  0  0  0  0  0  0
   -6.7750   42.4000   20.9590 C   0  0  0  0  0  1  0  0  0  0  0  0
   -2.9790   37.0010   21.3540 C   0  0  0  0  0  0  0  0  0  0  0  0
   -4.2710   36.5600   21.1290 C   0  0  0  0  0  3  0  0  0  0  0  0
   -4.5560   35.5780   20.2000 C   0  0  0  0  0  3  0  0  0  0  0  0
   -3.5590   34.9890   19.4540 C   0  0  0  0  0  3  0  0  0  0  0  0
   -2.2730   35.4190   19.6710 C   0  0  0  0  0  3  0  0  0  0  0  0
   -2.0030   36.3950   20.5940 C   0  0  0  0  0  3  0  0  0  0  0  0
 31 32  2  0
 31 30  1  0
 23 18  1  0
 32 33  1  0
 30 29  2  0
 18 17  1  0
 12  4  1  0
 33 28  2  0
 26 25  1  0
 25 27  1  0
 25 19  1  0
  6  7  2  0
  6  5  1  0
 29 28  1  0
 28  1  1  0
  4  5  1  0
  4  3  1  0
  7  8  1  0
 17 19  1  0
 17 16  2  0
  5 11  2  0
 19 20  1  0
 16  1  1  0
 16 21  1  0
  1  3  1  0
  3  2  2  0
  8  9  1  0
  8 10  2  0
 11 10  1  0
 11  2  1  0
 20 21  1  0
 20 24  1  0
 21 22  2  0
  2 14  1  0
 13 14  1  0
 14 15  1  0
M  RAD  8   1   2   6   2   7   2  10   2  13   2  14   2  15   2  19   2
M  RAD  8  25   2  26   2  27   2  29   2  30   2  31   2  32   2  33   2
M  END
>  <_TriposChargeType>  (1) 
GASTEIGER

>  <SuCOS_score>  (1) 
0.2869507830547947

>  <Volume_score>  (1) 
0.5018250193562659

>  <Feature_score>  (1) 
0.07207654675332358

$$$$
