DOCK.F10.P2hvx/L1008_ligand.pdbt
     RDKit          3D

 32 36  0  0  0  0  0  0  0  0999 V2000
   -1.7880   38.7270   22.9920 C   0  0  0  0  0  3  0  0  0  0  0  0
    5.5840   39.4450   24.2930 C   0  0  0  0  0  1  0  0  0  0  0  0
    4.3290   39.5790   23.4920 C   0  0  0  0  0  0  0  0  0  0  0  0
    4.4040   40.1470   22.2400 C   0  0  0  0  0  3  0  0  0  0  0  0
    3.2250   40.2570   21.5240 C   0  0  0  0  0  3  0  0  0  0  0  0
    2.0230   39.8090   22.0630 C   0  0  0  0  0  0  0  0  0  0  0  0
    0.4150   39.7790   21.4950 S   0  0  0  0  0  0  0  0  0  0  0  0
   -0.3460   39.0530   22.8340 C   0  0  0  0  0  0  0  0  0  0  0  0
    0.6970   38.8510   23.7020 C   0  0  0  0  0  0  0  0  0  0  0  0
    0.4010   38.2010   25.0530 C   0  0  0  0  0  1  0  0  0  0  0  0
    1.9210   39.2410   23.3040 C   0  0  0  0  0  0  0  0  0  0  0  0
    3.1380   39.1460   23.9990 C   0  0  0  0  0  3  0  0  0  0  0  0
   -2.6870   39.7930   22.4730 C   0  0  0  0  0  0  0  0  0  0  0  0
   -2.6030   40.8960   21.8000 C   0  0  0  0  0  0  0  0  0  0  0  0
   -1.5230   41.5960   21.2370 O   0  0  0  0  0  0  0  0  0  0  0  0
   -4.0240   41.1600   21.8300 C   0  0  1  0  0  0  0  0  0  0  0  0
   -4.7610   41.0200   20.5120 C   0  0  0  0  0  1  0  0  0  0  0  0
   -4.1140   39.9270   22.5850 C   0  0  0  0  0  0  0  0  0  0  0  0
   -5.0770   39.2640   23.1140 O   0  0  0  0  0  0  0  0  0  0  0  0
   -1.3550   41.4440   20.2510 H   0  0  0  0  0  0  0  0  0  0  0  0
   -4.4570   42.3240   22.6370 C   0  0  0  0  0  0  0  0  0  0  0  0
   -4.3630   42.3520   24.0070 C   0  0  0  0  0  3  0  0  0  0  0  0
   -4.7720   43.4440   24.7550 C   0  0  0  0  0  3  0  0  0  0  0  0
   -5.2890   44.5360   24.1190 C   0  0  0  0  0  3  0  0  0  0  0  0
   -5.3890   44.5230   22.7440 C   0  0  0  0  0  3  0  0  0  0  0  0
   -4.9770   43.4250   21.9980 C   0  0  0  0  0  3  0  0  0  0  0  0
   -2.0530   37.4970   22.1970 C   0  0  0  0  0  0  0  0  0  0  0  0
   -2.2020   37.5310   20.8280 C   0  0  0  0  0  3  0  0  0  0  0  0
   -2.4450   36.3780   20.1540 C   0  0  0  0  0  3  0  0  0  0  0  0
   -2.5450   35.1870   20.7980 C   0  0  0  0  0  3  0  0  0  0  0  0
   -2.3930   35.1590   22.1860 C   0  0  0  0  0  3  0  0  0  0  0  0
   -2.1470   36.3080   22.9000 C   0  0  0  0  0  3  0  0  0  0  0  0
 29 30  1  0
 29 28  2  0
 20 15  1  0
 16 17  1  6
 30 31  2  0
 28 27  1  0
 15 14  1  0
  7  6  1  0
  7  8  1  0
  5  6  2  0
  5  4  1  0
 14 16  1  0
 14 13  2  0
 16 18  1  0
 16 21  1  0
 26 21  1  0
 26 25  2  0
  6 11  1  0
 31 32  1  0
 27 32  2  0
 27  1  1  0
  4  3  2  0
 13 18  1  0
 13  1  1  0
 18 19  2  0
 21 22  2  0
 25 24  1  0
  8  1  1  0
  8  9  2  0
 11  9  1  0
 11 12  2  0
  3 12  1  0
  3  2  1  0
  9 10  1  0
 22 23  1  0
 24 23  2  0
M  RAD  8   1   2   2   2   4   2   5   2  10   2  12   2  17   2  22   2
M  RAD  8  23   2  24   2  25   2  26   2  28   2  29   2  30   2  31   2
M  RAD  1  32   2
M  END
>  <_TriposChargeType>  (1) 
GASTEIGER

>  <SuCOS_score>  (1) 
0.3929443005792162

>  <Volume_score>  (1) 
0.52259418848746

>  <Feature_score>  (1) 
0.2632944126709724

$$$$
