DOCK.F10.P2hvx/L1006_ligand.pdbt
     RDKit          3D

 42 46  0  0  0  0  0  0  0  0999 V2000
   -3.2270   37.6460   22.0740 C   0  0  0  0  0  3  0  0  0  0  0  0
   -0.9500   37.8480   23.3290 C   0  0  0  0  0  0  0  0  0  0  0  0
   -1.8830   38.1220   22.3190 C   0  0  0  0  0  0  0  0  0  0  0  0
   -1.2010   38.8840   21.4120 N   0  0  0  0  0  0  0  0  0  0  0  0
    0.0520   39.0850   21.7770 C   0  0  0  0  0  0  0  0  0  0  0  0
    1.0730   39.7870   21.1250 C   0  0  0  0  0  3  0  0  0  0  0  0
    2.3220   39.8530   21.6780 C   0  0  0  0  0  0  0  0  0  0  0  0
    3.4320   40.6000   20.9990 C   0  0  0  0  0  1  0  0  0  0  0  0
    2.5110   39.2100   22.8750 C   0  0  0  0  0  3  0  0  0  0  0  0
    1.5070   38.5210   23.5150 C   0  0  0  0  0  3  0  0  0  0  0  0
    0.2410   38.4430   22.9760 C   0  0  0  0  0  0  0  0  0  0  0  0
   -1.6090   39.2800   20.5120 H   0  0  0  0  0  0  0  0  0  0  0  0
   -1.2610   37.1610   24.5560 C   0  0  0  0  0  2  0  0  0  0  0  0
   -1.1960   35.6590   24.6100 C   0  0  1  0  0  0  0  0  0  0  0  0
   -0.4020   35.1190   23.3980 C   0  0  0  0  0  1  0  0  0  0  0  0
   -0.5830   35.0870   25.8380 C   0  0  0  0  0  1  0  0  0  0  0  0
   -5.0110   35.2390   25.0550 C   0  0  0  0  0  1  0  0  0  0  0  0
   -3.6040   35.7550   25.1330 C   0  0  0  0  0  0  0  0  0  0  0  0
   -3.3620   36.7990   25.7890 O   0  0  0  0  0  0  0  0  0  0  0  0
   -2.5440   35.0540   24.4580 N   0  0  0  0  0  0  0  0  0  0  0  0
   -2.7240   34.2010   23.9170 H   0  0  0  0  0  0  0  0  0  0  0  0
   -4.1600   38.8180   21.8740 C   0  0  0  0  0  0  0  0  0  0  0  0
   -4.1500   39.9410   21.2290 C   0  0  0  0  0  0  0  0  0  0  0  0
   -3.2000   40.5580   20.3990 O   0  0  0  0  0  0  0  0  0  0  0  0
   -5.4870   40.3590   21.6630 C   0  0  1  0  0  0  0  0  0  0  0  0
   -6.5480   40.4300   20.6070 C   0  0  0  0  0  1  0  0  0  0  0  0
   -5.4870   39.0900   22.3890 C   0  0  0  0  0  0  0  0  0  0  0  0
   -6.2940   38.4830   23.1430 O   0  0  0  0  0  0  0  0  0  0  0  0
   -3.3910   40.5160   19.4000 H   0  0  0  0  0  0  0  0  0  0  0  0
   -5.3690   41.5860   22.5100 C   0  0  0  0  0  0  0  0  0  0  0  0
   -5.3190   42.8570   21.9620 C   0  0  0  0  0  3  0  0  0  0  0  0
   -5.2100   43.9820   22.7660 C   0  0  0  0  0  3  0  0  0  0  0  0
   -5.1490   43.8620   24.1370 C   0  0  0  0  0  0  0  0  0  0  0  0
   -5.0310   45.0790   25.0170 C   0  0  0  0  0  1  0  0  0  0  0  0
   -5.1960   42.6270   24.7060 C   0  0  0  0  0  3  0  0  0  0  0  0
   -5.3030   41.5220   23.8870 C   0  0  0  0  0  3  0  0  0  0  0  0
   -3.5120   36.6020   21.1130 C   0  0  0  0  0  0  0  0  0  0  0  0
   -2.5190   36.1390   20.3000 C   0  0  0  0  0  3  0  0  0  0  0  0
   -2.7450   35.1560   19.3600 C   0  0  0  0  0  3  0  0  0  0  0  0
   -4.0000   34.5900   19.1970 C   0  0  0  0  0  3  0  0  0  0  0  0
   -5.0120   35.0410   20.0030 C   0  0  0  0  0  3  0  0  0  0  0  0
   -4.7750   36.0210   20.9380 C   0  0  0  0  0  3  0  0  0  0  0  0
 40 39  1  0
 40 41  2  0
 39 38  2  0
 29 24  1  0
 41 42  1  0
 38 37  1  0
 24 23  1  0
 12  4  1  0
 25 26  1  6
 42 37  2  0
  8  7  1  0
 37  1  1  0
  6  7  2  0
  6  5  1  0
 23 25  1  0
 23 22  2  0
  4  5  1  0
  4  3  1  0
 25 27  1  0
 25 30  1  0
  7  9  1  0
  5 11  2  0
 22  1  1  0
 22 27  1  0
 31 30  2  0
 31 32  1  0
  1  3  1  0
  3  2  2  0
 27 28  2  0
 30 36  1  0
 32 33  2  0
  9 10  2  0
 11  2  1  0
 11 10  1  0
  2 13  1  0
 14 15  1  6
 36 35  2  0
 21 20  1  0
 33 35  1  0
 33 34  1  0
 20 14  1  0
 20 18  1  0
 13 14  1  0
 14 16  1  0
 17 18  1  0
 18 19  2  0
M  RAD  8   1   2   6   2   8   2   9   2  10   2  13   3  15   2  16   2
M  RAD  8  17   2  26   2  31   2  32   2  34   2  35   2  36   2  38   2
M  RAD  4  39   2  40   2  41   2  42   2
M  END
>  <_TriposChargeType>  (1) 
GASTEIGER

>  <SuCOS_score>  (1) 
0.3394242786220901

>  <Volume_score>  (1) 
0.5357063895644484

>  <Feature_score>  (1) 
0.14314216767973187

$$$$
