DOCK.F10.P2hvx/L1012_ligand.pdbt
     RDKit          3D

 30 32  0  0  0  0  0  0  0  0999 V2000
   -3.6090   39.3240   22.6340 N   0  0  0  0  0  0  0  0  0  0  0  0
   -3.3900   40.0770   23.3330 H   0  0  0  0  0  0  0  0  0  0  0  0
   -7.2280   39.5060   20.5200 C   0  0  0  0  0  0  0  0  0  0  0  0
   -6.8360   38.3080   21.0770 C   0  0  0  0  0  3  0  0  0  0  0  0
   -5.6360   38.2580   21.7780 C   0  0  0  0  0  3  0  0  0  0  0  0
   -4.8300   39.3580   21.9340 C   0  0  0  0  0  0  0  0  0  0  0  0
   -5.2420   40.5450   21.3690 C   0  0  0  0  0  0  0  0  0  0  0  0
   -6.4260   40.6400   20.6650 C   0  0  0  0  0  3  0  0  0  0  0  0
   -4.2450   41.9700   21.5430 S   0  0  2  0  0  6  0  0  0  0  0  0
   -5.2060   43.3200   22.2020 C   0  0  0  0  0  1  0  0  0  0  0  0
   -3.7280   42.4430   20.1970 O   0  0  0  0  0  0  0  0  0  0  0  0
   -3.1110   41.7330   22.4910 O   0  0  0  0  0  0  0  0  0  0  0  0
   -8.4800   39.5970   19.7780 C   0  0  0  0  0  0  0  0  0  0  0  0
   -9.4210   38.7950   19.9970 O   0  0  0  0  0  0  0  0  0  0  0  0
   -9.9090   40.8020   18.2230 C   0  0  0  0  0  1  0  0  0  0  0  0
   -8.6430   40.5720   18.8210 O   0  0  0  0  0  0  0  0  0  0  0  0
   -2.4820   38.0820   22.3690 S   0  0  2  0  0  6  0  0  0  0  0  0
   -2.7270   37.4140   21.0450 O   0  0  0  0  0  0  0  0  0  0  0  0
   -2.6770   37.0110   23.4150 O   0  0  0  0  0  0  0  0  0  0  0  0
   -0.8160   38.6250   22.3450 C   0  0  0  0  0  0  0  0  0  0  0  0
   -0.0240   39.4580   21.0940 S   0  0  0  0  0  0  0  0  0  0  0  0
    1.5200   39.6240   21.7980 C   0  0  0  0  0  0  0  0  0  0  0  0
    2.7200   40.2080   21.3670 C   0  0  0  0  0  3  0  0  0  0  0  0
    3.8430   40.1890   22.1820 C   0  0  0  0  0  3  0  0  0  0  0  0
    3.6800   39.5750   23.3950 C   0  0  0  0  0  0  0  0  0  0  0  0
    4.7830   39.5490   24.2090 F   0  0  0  0  0  0  0  0  0  0  0  0
    2.5240   39.0000   23.8360 C   0  0  0  0  0  3  0  0  0  0  0  0
    1.3740   39.0160   23.0120 C   0  0  0  0  0  0  0  0  0  0  0  0
    0.1570   38.4940   23.2970 C   0  0  0  0  0  0  0  0  0  0  0  0
   -0.2070   37.7760   24.5950 C   0  0  0  0  0  1  0  0  0  0  0  0
 15 16  1  0
 16 13  1  0
 13 14  2  0
 13  3  1  0
 11  9  2  0
  3  8  2  0
  3  4  1  0
  8  7  1  0
 18 17  2  0
  4  5  2  0
 21 22  1  0
 21 20  1  0
 23 22  2  0
 23 24  1  0
  7  9  1  0
  7  6  2  0
  9 10  1  1
  9 12  2  0
  5  6  1  0
 22 28  1  0
  6  1  1  0
 24 25  2  0
 20 17  1  0
 20 29  2  0
 17  1  1  1
 17 19  2  0
  1  2  1  0
 28 29  1  0
 28 27  2  0
 29 30  1  0
 25 27  1  0
 25 26  1  0
M  RAD  8   4   2   5   2   8   2  10   2  15   2  23   2  24   2  27   2
M  RAD  1  30   2
M  END
>  <_TriposChargeType>  (1) 
GASTEIGER

>  <SuCOS_score>  (1) 
0.34450203224255116

>  <Volume_score>  (1) 
0.45983869185725335

>  <Feature_score>  (1) 
0.229165372627849

$$$$
