DOCK.F10.P2hvx/L1011_ligand.pdbt
     RDKit          3D

 30 33  0  0  0  0  0  0  0  0999 V2000
   -4.2460   38.4760   21.6910 C   0  0  0  0  0  0  0  0  0  0  0  0
   -3.0260   39.1430   21.7120 C   0  0  0  0  0  0  0  0  0  0  0  0
   -2.0850   38.3110   21.1670 N   0  0  0  0  0  4  0  0  0  0  0  0
   -2.6640   37.1520   20.8010 C   0  0  0  0  0  0  0  0  0  0  0  0
   -2.2000   35.9900   20.2060 C   0  0  0  0  0  3  0  0  0  0  0  0
   -3.0220   34.9190   19.9210 C   0  0  0  0  0  3  0  0  0  0  0  0
   -4.3570   35.0420   20.2580 C   0  0  0  0  0  0  0  0  0  0  0  0
   -5.1730   33.9940   19.9880 F   0  0  0  0  0  0  0  0  0  0  0  0
   -4.8310   36.1840   20.8470 C   0  0  0  0  0  3  0  0  0  0  0  0
   -3.9930   37.2450   21.1210 C   0  0  0  0  0  0  0  0  0  0  0  0
   -2.8940   40.5050   22.1930 C   0  0  0  0  0  0  0  0  0  0  0  0
   -3.1970   40.8040   23.3930 O   0  0  0  0  0  1  0  0  0  0  0  0
   -2.4430   41.5490   21.4020 O   0  0  0  0  0  0  0  0  0  0  0  0
   -5.5730   38.9640   22.1420 C   0  0  0  0  0  2  0  0  0  0  0  0
   -7.5170   40.8000   19.3590 C   0  0  0  0  0  1  0  0  0  0  0  0
   -6.5950   40.6110   20.4750 N   0  0  0  0  0  0  0  0  0  0  0  0
   -5.8990   41.7680   20.9460 C   0  0  0  0  0  1  0  0  0  0  0  0
   -6.4430   39.3200   21.0120 C   0  0  0  0  0  0  0  0  0  0  0  0
   -7.1060   38.3590   20.4930 O   0  0  0  0  0  0  0  0  0  0  0  0
   -0.6870   38.6680   21.0880 C   0  0  0  0  0  2  0  0  0  0  0  0
   -0.0760   38.5920   22.4390 C   0  0  0  0  0  0  0  0  0  0  0  0
   -0.7880   38.0090   23.4840 C   0  0  0  0  0  3  0  0  0  0  0  0
   -0.2000   37.8130   24.7260 C   0  0  0  0  0  3  0  0  0  0  0  0
    1.0990   38.2000   24.9220 C   0  0  0  0  0  3  0  0  0  0  0  0
    1.8500   38.7800   23.9310 C   0  0  0  0  0  0  0  0  0  0  0  0
    3.1590   39.2000   24.1990 C   0  0  0  0  0  3  0  0  0  0  0  0
    3.8510   39.8240   23.1840 C   0  0  0  0  0  3  0  0  0  0  0  0
    3.3160   40.0430   21.9480 C   0  0  0  0  0  3  0  0  0  0  0  0
    1.9970   39.6010   21.7290 C   0  0  0  0  0  3  0  0  0  0  0  0
    1.2490   38.9710   22.6930 C   0  0  0  0  0  0  0  0  0  0  0  0
 15 16  1  0
  6  5  2  0
  6  7  1  0
  8  7  1  0
  5  4  1  0
  7  9  2  0
 16 17  1  0
 16 18  1  0
 19 18  2  0
  4 10  2  0
  4  3  1  0
  9 10  1  0
 18 14  1  0
 20  3  1  0
 20 21  1  0
 10  1  1  0
  3  2  1  0
 13 11  2  0
  1  2  2  0
  1 14  1  0
  2 11  1  0
 29 28  1  0
 29 30  2  0
 28 27  2  0
 11 12  1  0
 21 30  1  0
 21 22  2  0
 30 25  1  0
 27 26  1  0
 22 23  1  0
 25 26  2  0
 25 24  1  0
 23 24  2  0
M  RAD  8   5   2   6   2   9   2  14   3  15   2  17   2  20   3  22   2
M  CHG  2   3   1  12  -1
M  RAD  6  23   2  24   2  26   2  27   2  28   2  29   2
M  END
>  <_TriposChargeType>  (1) 
GASTEIGER

>  <SuCOS_score>  (1) 
0.34374296756642386

>  <Volume_score>  (1) 
0.5124295657938349

>  <Feature_score>  (1) 
0.17505636933901278

$$$$
