DOCK.F10.P5yjm/L1001_ligand.pdbt
     RDKit          3D

 32 35  0  0  0  0  0  0  0  0999 V2000
   -0.9630   37.1010   22.6990 C   0  0  0  0  0  0  0  0  0  0  0  0
   -1.4850   37.2550   21.4050 C   0  0  0  0  0  0  0  0  0  0  0  0
   -1.6000   36.0540   20.8310 N   0  0  0  0  0  4  0  0  0  0  0  0
   -1.1670   35.1440   21.7180 C   0  0  0  0  0  0  0  0  0  0  0  0
   -1.0770   33.7430   21.6160 C   0  0  0  0  0  3  0  0  0  0  0  0
   -0.6050   32.9870   22.6450 C   0  0  0  0  0  3  0  0  0  0  0  0
   -0.2000   33.5830   23.8170 C   0  0  0  0  0  0  0  0  0  0  0  0
    0.2760   32.8720   24.8640 F   0  0  0  0  0  0  0  0  0  0  0  0
   -0.2930   34.9640   23.9020 C   0  0  0  0  0  3  0  0  0  0  0  0
   -0.7720   35.7630   22.8690 C   0  0  0  0  0  0  0  0  0  0  0  0
   -1.8270   38.5470   20.8330 C   0  0  0  0  0  0  0  0  0  0  0  0
   -0.9850   39.1970   20.2000 O   0  0  0  0  0  1  0  0  0  0  0  0
   -3.0970   39.0440   21.0010 O   0  0  0  0  0  0  0  0  0  0  0  0
   -0.7080   38.2000   23.6110 C   0  0  0  0  0  2  0  0  0  0  0  0
    1.6900   38.6070   23.3910 C   0  0  0  0  0  0  0  0  0  0  0  0
    1.5870   38.7280   22.1390 O   0  0  0  0  0  0  0  0  0  0  0  0
    0.5700   38.3200   24.2190 N   0  0  0  0  0  0  0  0  0  0  0  0
    0.8000   38.2000   25.6550 C   0  0  0  0  0  1  0  0  0  0  0  0
    2.9340   38.7600   23.9590 O   0  0  0  0  0  0  0  0  0  0  0  0
    5.2540   39.2000   24.2000 C   0  0  0  0  0  1  0  0  0  0  0  0
    4.0290   39.4000   23.3410 C   0  0  0  0  0  2  0  0  0  0  0  0
   -2.0850   35.7330   19.5210 C   0  0  0  0  0  2  0  0  0  0  0  0
   -3.2640   34.8380   19.5440 C   0  0  0  0  0  0  0  0  0  0  0  0
   -4.2200   34.8460   20.5380 C   0  0  0  0  0  3  0  0  0  0  0  0
   -5.3160   33.9850   20.5160 C   0  0  0  0  0  3  0  0  0  0  0  0
   -5.4180   33.1020   19.4480 C   0  0  0  0  0  3  0  0  0  0  0  0
   -4.4840   33.0590   18.4330 C   0  0  0  0  0  0  0  0  0  0  0  0
   -4.6010   32.1800   17.3830 C   0  0  0  0  0  3  0  0  0  0  0  0
   -3.6530   32.1660   16.3920 C   0  0  0  0  0  3  0  0  0  0  0  0
   -2.5700   33.0120   16.4020 C   0  0  0  0  0  3  0  0  0  0  0  0
   -2.4760   33.8890   17.4730 C   0  0  0  0  0  3  0  0  0  0  0  0
   -3.3990   33.9470   18.4980 C   0  0  0  0  0  0  0  0  0  0  0  0
 29 30  2  0
 29 28  1  0
 30 31  1  0
 28 27  2  0
 31 32  2  0
 27 32  1  0
 27 26  1  0
 32 23  1  0
 26 25  2  0
 22 23  1  0
 22  3  1  0
 23 24  2  0
 12 11  1  0
 25 24  1  0
  3  2  1  0
  3  4  1  0
 11 13  2  0
 11  2  1  0
  2  1  2  0
  5  4  2  0
  5  6  1  0
  4 10  1  0
 16 15  2  0
  6  7  2  0
  1 10  1  0
  1 14  1  0
 10  9  2  0
 21 19  1  0
 21 20  1  0
 15 19  1  0
 15 17  1  0
 14 17  1  0
  7  9  1  0
  7  8  1  0
 17 18  1  0
M  RAD  8   5   2   6   2   9   2  14   3  18   2  20   2  21   3  22   3
M  CHG  2   3   1  12  -1
M  RAD  7  24   2  25   2  26   2  28   2  29   2  30   2  31   2
M  END
>  <_TriposChargeType>  (1) 
GASTEIGER

>  <SuCOS_score>  (1) 
0.17824941478150735

>  <Volume_score>  (1) 
0.3482311189974493

>  <Feature_score>  (1) 
0.008267710565565415

$$$$
