DOCK.F10.P5yjm/L1009_ligand.pdbt
     RDKit          3D

 34 38  0  0  0  0  0  0  0  0999 V2000
   -3.0240   36.6310   21.7670 C   0  0  0  0  0  3  0  0  0  0  0  0
   -5.1910   34.6400   20.5050 C   0  0  0  0  0  1  0  0  0  0  0  0
   -3.8110   34.9260   20.0090 C   0  0  0  0  0  0  0  0  0  0  0  0
   -2.8730   35.7780   20.5510 C   0  0  0  0  0  0  0  0  0  0  0  0
   -1.8030   35.6740   19.7450 N   0  0  0  0  0  0  0  0  0  0  0  0
   -2.0150   34.8180   18.7450 C   0  0  0  0  0  0  0  0  0  0  0  0
   -1.2430   34.3680   17.6680 C   0  0  0  0  0  3  0  0  0  0  0  0
   -1.7940   33.4510   16.7980 C   0  0  0  0  0  3  0  0  0  0  0  0
   -3.0690   32.9560   16.9380 C   0  0  0  0  0  0  0  0  0  0  0  0
   -3.5590   32.0460   16.0420 F   0  0  0  0  0  0  0  0  0  0  0  0
   -3.8250   33.4000   17.9970 C   0  0  0  0  0  3  0  0  0  0  0  0
   -3.2910   34.3220   18.8860 C   0  0  0  0  0  0  0  0  0  0  0  0
   -0.8830   36.1860   19.8490 H   0  0  0  0  0  0  0  0  0  0  0  0
   -1.7340   36.9450   22.4160 C   0  0  0  0  0  0  0  0  0  0  0  0
   -0.6420   37.4890   21.9310 C   0  0  0  0  0  0  0  0  0  0  0  0
   -0.4260   37.9290   20.6020 O   0  0  0  0  0  0  0  0  0  0  0  0
    0.3930   37.6000   22.9780 C   0  0  0  0  0  3  0  0  0  0  0  0
   -0.1840   37.1010   24.1450 O   0  0  0  0  0  0  0  0  0  0  0  0
   -1.4640   36.6840   23.8480 C   0  0  0  0  0  0  0  0  0  0  0  0
   -2.2430   36.1690   24.6890 O   0  0  0  0  0  0  0  0  0  0  0  0
    0.3800   37.4990   20.1440 H   0  0  0  0  0  0  0  0  0  0  0  0
    0.7720   39.0450   23.2510 C   0  0  0  0  0  2  0  0  0  0  0  0
    2.2430   39.2010   23.1140 C   0  0  0  0  0  0  0  0  0  0  0  0
    2.7990   39.5520   21.9040 C   0  0  0  0  0  3  0  0  0  0  0  0
    4.1680   39.7040   21.7400 C   0  0  0  0  0  3  0  0  0  0  0  0
    5.0170   39.4970   22.8260 C   0  0  0  0  0  3  0  0  0  0  0  0
    4.4490   39.1490   24.0240 C   0  0  0  0  0  3  0  0  0  0  0  0
    3.0890   38.9990   24.1850 C   0  0  0  0  0  3  0  0  0  0  0  0
   -3.8410   37.8260   21.4950 C   0  0  0  0  0  0  0  0  0  0  0  0
   -3.2920   39.1080   21.4600 C   0  0  0  0  0  3  0  0  0  0  0  0
   -4.1120   40.1840   21.2050 C   0  0  0  0  0  3  0  0  0  0  0  0
   -5.4630   40.0340   20.9810 C   0  0  0  0  0  3  0  0  0  0  0  0
   -6.0200   38.7570   21.0130 C   0  0  0  0  0  3  0  0  0  0  0  0
   -5.1950   37.7060   21.2670 C   0  0  0  0  0  3  0  0  0  0  0  0
 10  9  1  0
  8  9  2  0
  8  7  1  0
  9 11  1  0
  7  6  2  0
 11 12  2  0
  6 12  1  0
  6  5  1  0
 12  3  1  0
  5 13  1  0
  5  4  1  0
  3  2  1  0
  3  4  2  0
 21 16  1  0
  4  1  1  0
 16 15  1  0
 32 33  2  0
 32 31  1  0
 33 34  1  0
 31 30  2  0
 34 29  2  0
 30 29  1  0
 29  1  1  0
 25 24  2  0
 25 26  1  0
  1 14  1  0
 24 23  1  0
 15 14  2  0
 15 17  1  0
 14 19  1  0
 26 27  2  0
 17 22  1  0
 17 18  1  0
 23 22  1  0
 23 28  2  0
 19 18  1  0
 19 20  2  0
 27 28  1  0
M  RAD  8   1   2   2   2   7   2   8   2  11   2  17   2  22   3  24   2
M  RAD  8  25   2  26   2  27   2  28   2  30   2  31   2  32   2  33   2
M  RAD  1  34   2
M  END
>  <_TriposChargeType>  (1) 
GASTEIGER

>  <SuCOS_score>  (1) 
0.27838357417588366

>  <Volume_score>  (1) 
0.45554323725055434

>  <Feature_score>  (1) 
0.10122391110121298

$$$$
