DOCK.F10.P5yjm/L1014_ligand.pdbt
     RDKit          3D

 24 27  0  0  0  0  0  0  0  0999 V2000
   -0.6350   39.9940   21.4760 C   0  0  0  0  0  2  0  0  0  0  0  0
    1.7610   40.6480   20.8240 C   0  0  0  0  0  1  0  0  0  0  0  0
    2.1990   39.9490   22.0170 C   0  0  0  0  0  0  0  0  0  0  0  0
    3.5660   39.8010   22.3220 C   0  0  0  0  0  3  0  0  0  0  0  0
    4.0270   39.2420   23.4790 C   0  0  0  0  0  3  0  0  0  0  0  0
    3.1210   38.8000   24.3960 C   0  0  0  0  0  3  0  0  0  0  0  0
    1.7620   38.9200   24.1480 C   0  0  0  0  0  0  0  0  0  0  0  0
    0.8810   38.5130   25.1120 C   0  0  0  0  0  3  0  0  0  0  0  0
   -0.4520   38.6680   24.8980 C   0  0  0  0  0  3  0  0  0  0  0  0
   -0.8960   39.2100   23.7510 C   0  0  0  0  0  3  0  0  0  0  0  0
   -0.0410   39.6540   22.6970 C   0  0  0  0  0  0  0  0  0  0  0  0
    1.2910   39.4910   22.9540 C   0  0  0  0  0  0  0  0  0  0  0  0
   -2.0020   39.3510   21.4400 N   0  0  0  0  0  0  0  0  0  0  0  0
   -3.1900   39.9250   21.6690 C   0  0  0  0  0  0  0  0  0  0  0  0
   -4.1690   38.9040   21.6020 C   0  0  0  0  0  3  0  0  0  0  0  0
   -3.5540   37.7150   21.3320 C   0  0  0  0  0  0  0  0  0  0  0  0
   -4.0070   36.4030   21.1790 C   0  0  0  0  0  3  0  0  0  0  0  0
   -3.1340   35.3730   20.9290 C   0  0  0  0  0  3  0  0  0  0  0  0
   -1.8000   35.6790   20.8360 C   0  0  0  0  0  3  0  0  0  0  0  0
   -1.3570   36.9830   20.9890 C   0  0  0  0  0  3  0  0  0  0  0  0
   -2.2070   38.0330   21.2390 C   0  0  0  0  0  0  0  0  0  0  0  0
   -3.5190   41.3000   21.9370 C   0  0  0  0  0  0  0  0  0  0  0  0
   -4.2000   41.5660   23.0000 O   0  0  0  0  0  1  0  0  0  0  0  0
   -3.1960   42.4000   21.2000 O   0  0  0  0  0  0  0  0  0  0  0  0
  2  3  1  0
 19 18  2  0
 19 20  1  0
 18 17  1  0
 20 21  2  0
 17 16  2  0
 24 22  2  0
 21 16  1  0
 21 13  1  0
 16 15  1  0
 13  1  1  0
 13 14  1  0
  1 11  1  0
 15 14  2  0
 14 22  1  0
 22 23  1  0
  3  4  2  0
  3 12  1  0
  4  5  1  0
 11 12  2  0
 11 10  1  0
 12  7  1  0
  5  6  2  0
 10  9  2  0
  7  6  1  0
  7  8  2  0
  9  8  1  0
M  RAD  8   1   3   2   2   4   2   5   2   6   2   8   2   9   2  10   2
M  CHG  1  23  -1
M  RAD  5  15   2  17   2  18   2  19   2  20   2
M  END
>  <_TriposChargeType>  (1) 
GASTEIGER

>  <SuCOS_score>  (1) 
0.3800546615477052

>  <Volume_score>  (1) 
0.42846094354215003

>  <Feature_score>  (1) 
0.3316483795532604

$$$$
