DOCK.F10.P5yjm/L1011_ligand.pdbt
     RDKit          3D

 30 33  0  0  0  0  0  0  0  0999 V2000
   -4.4430   39.2980   21.8080 C   0  0  0  0  0  0  0  0  0  0  0  0
   -3.4000   40.2150   21.7380 C   0  0  0  0  0  0  0  0  0  0  0  0
   -2.2630   39.5300   21.4020 N   0  0  0  0  0  4  0  0  0  0  0  0
   -2.5490   38.2230   21.2530 C   0  0  0  0  0  0  0  0  0  0  0  0
   -1.8020   37.1060   20.9170 C   0  0  0  0  0  3  0  0  0  0  0  0
   -2.3510   35.8430   20.8230 C   0  0  0  0  0  3  0  0  0  0  0  0
   -3.7030   35.7230   21.0820 C   0  0  0  0  0  0  0  0  0  0  0  0
   -4.2520   34.4860   20.9980 F   0  0  0  0  0  0  0  0  0  0  0  0
   -4.4550   36.8170   21.4160 C   0  0  0  0  0  3  0  0  0  0  0  0
   -3.8880   38.0710   21.5030 C   0  0  0  0  0  0  0  0  0  0  0  0
   -3.6010   41.6370   21.9440 C   0  0  0  0  0  0  0  0  0  0  0  0
   -4.1650   42.0690   23.0000 O   0  0  0  0  0  1  0  0  0  0  0  0
   -3.2060   42.5990   21.0290 O   0  0  0  0  0  0  0  0  0  0  0  0
   -5.8740   39.5490   22.1070 C   0  0  0  0  0  2  0  0  0  0  0  0
   -7.9570   41.0000   19.2000 C   0  0  0  0  0  1  0  0  0  0  0  0
   -7.1690   40.9780   20.4280 N   0  0  0  0  0  0  0  0  0  0  0  0
   -6.9580   42.2300   21.0870 C   0  0  0  0  0  1  0  0  0  0  0  0
   -6.6670   39.7460   20.8850 C   0  0  0  0  0  0  0  0  0  0  0  0
   -6.9070   38.6950   20.1990 O   0  0  0  0  0  0  0  0  0  0  0  0
   -0.9720   40.1720   21.3020 C   0  0  0  0  0  2  0  0  0  0  0  0
   -0.1380   39.8010   22.4730 C   0  0  0  0  0  0  0  0  0  0  0  0
   -0.7530   39.4000   23.6560 C   0  0  0  0  0  3  0  0  0  0  0  0
   -0.0040   38.9310   24.7260 C   0  0  0  0  0  3  0  0  0  0  0  0
    1.3590   38.8630   24.6130 C   0  0  0  0  0  3  0  0  0  0  0  0
    2.0210   39.2460   23.4730 C   0  0  0  0  0  0  0  0  0  0  0  0
    3.4200   39.2010   23.4270 C   0  0  0  0  0  3  0  0  0  0  0  0
    4.0370   39.6450   22.2780 C   0  0  0  0  0  3  0  0  0  0  0  0
    3.3460   40.1180   21.2020 C   0  0  0  0  0  3  0  0  0  0  0  0
    1.9400   40.1410   21.2970 C   0  0  0  0  0  3  0  0  0  0  0  0
    1.2590   39.7140   22.4090 C   0  0  0  0  0  0  0  0  0  0  0  0
 15 16  1  0
 19 18  2  0
 16 18  1  0
 16 17  1  0
  6  5  2  0
  6  7  1  0
 18 14  1  0
  5  4  1  0
  8  7  1  0
 13 11  2  0
  7  9  2  0
 28 29  1  0
 28 27  2  0
  4  3  1  0
  4 10  2  0
 29 30  2  0
 20  3  1  0
 20 21  1  0
  3  2  1  0
  9 10  1  0
 10  1  1  0
  2  1  2  0
  2 11  1  0
  1 14  1  0
 11 12  1  0
 27 26  1  0
 30 21  1  0
 30 25  1  0
 21 22  2  0
 26 25  2  0
 25 24  1  0
 22 23  1  0
 24 23  2  0
M  RAD  8   5   2   6   2   9   2  14   3  15   2  17   2  20   3  22   2
M  CHG  2   3   1  12  -1
M  RAD  6  23   2  24   2  26   2  27   2  28   2  29   2
M  END
>  <_TriposChargeType>  (1) 
GASTEIGER

>  <SuCOS_score>  (1) 
0.36922099484571025

>  <Volume_score>  (1) 
0.5309910507126284

>  <Feature_score>  (1) 
0.20745093897879202

$$$$
