DOCK.F10.P5yjm/L1012_ligand.pdbt
     RDKit          3D

 30 32  0  0  0  0  0  0  0  0999 V2000
   -2.1130   36.2160   23.2890 N   0  0  0  0  0  0  0  0  0  0  0  0
   -2.3340   35.5940   24.1060 H   0  0  0  0  0  0  0  0  0  0  0  0
   -1.9620   34.5120   19.4580 C   0  0  0  0  0  0  0  0  0  0  0  0
   -2.4300   35.8000   19.6020 C   0  0  0  0  0  3  0  0  0  0  0  0
   -2.4750   36.3570   20.8750 C   0  0  0  0  0  3  0  0  0  0  0  0
   -2.0690   35.6700   21.9910 C   0  0  0  0  0  0  0  0  0  0  0  0
   -1.6050   34.3840   21.8250 C   0  0  0  0  0  0  0  0  0  0  0  0
   -1.5440   33.7920   20.5790 C   0  0  0  0  0  3  0  0  0  0  0  0
   -1.0790   33.4730   23.2200 S   0  0  2  0  0  6  0  0  0  0  0  0
    0.4330   32.6010   22.8560 C   0  0  0  0  0  1  0  0  0  0  0  0
   -2.0960   32.4090   23.5930 O   0  0  0  0  0  0  0  0  0  0  0  0
   -0.8000   34.3690   24.3860 O   0  0  0  0  0  0  0  0  0  0  0  0
   -1.9010   33.8950   18.1380 C   0  0  0  0  0  0  0  0  0  0  0  0
   -0.8000   33.6260   17.6000 O   0  0  0  0  0  0  0  0  0  0  0  0
   -3.0290   32.9540   16.2000 C   0  0  0  0  0  1  0  0  0  0  0  0
   -3.0640   33.5990   17.4630 O   0  0  0  0  0  0  0  0  0  0  0  0
   -1.8150   37.8660   23.5550 S   0  0  2  0  0  6  0  0  0  0  0  0
   -2.0340   38.2210   24.9990 O   0  0  0  0  0  0  0  0  0  0  0  0
   -2.8210   38.6780   22.7730 O   0  0  0  0  0  0  0  0  0  0  0  0
   -0.1830   38.3680   23.1660 C   0  0  0  0  0  0  0  0  0  0  0  0
    0.3820   38.9660   21.6800 S   0  0  0  0  0  0  0  0  0  0  0  0
    2.0200   39.2210   22.0810 C   0  0  0  0  0  0  0  0  0  0  0  0
    3.1250   39.7030   21.3660 C   0  0  0  0  0  3  0  0  0  0  0  0
    4.3680   39.8000   21.9760 C   0  0  0  0  0  3  0  0  0  0  0  0
    4.4150   39.4000   23.2840 C   0  0  0  0  0  0  0  0  0  0  0  0
    5.6390   39.4920   23.8970 F   0  0  0  0  0  0  0  0  0  0  0  0
    3.3540   38.9280   24.0000 C   0  0  0  0  0  3  0  0  0  0  0  0
    2.0830   38.8260   23.3870 C   0  0  0  0  0  0  0  0  0  0  0  0
    0.9370   38.3800   23.9520 C   0  0  0  0  0  0  0  0  0  0  0  0
    0.8000   37.8960   25.3940 C   0  0  0  0  0  1  0  0  0  0  0  0
 15 16  1  0
 16 13  1  0
 14 13  2  0
 13  3  1  0
  3  4  2  0
  3  8  1  0
  4  5  1  0
  8  7  2  0
  5  6  2  0
 23 24  1  0
 23 22  2  0
 21 22  1  0
 21 20  1  0
  7  6  1  0
  7  9  1  0
 24 25  2  0
  6  1  1  0
 22 28  1  0
 19 17  2  0
  9 10  1  6
 20 17  1  0
 20 29  2  0
  9 11  2  0
  9 12  2  0
 25 26  1  0
 25 27  1  0
 17  1  1  1
  1  2  1  0
 28 29  1  0
 28 27  2  0
 17 18  2  0
 29 30  1  0
M  RAD  8   4   2   5   2   8   2  10   2  15   2  23   2  24   2  27   2
M  RAD  1  30   2
M  END
>  <_TriposChargeType>  (1) 
GASTEIGER

>  <SuCOS_score>  (1) 
0.25029736856382073

>  <Volume_score>  (1) 
0.37916528285176576

>  <Feature_score>  (1) 
0.1214294542758757

$$$$
