DOCK.F10.P1t31/L1007_ligand.pdbt
     RDKit          3D

 31 35  0  0  0  0  0  0  0  0999 V2000
   -1.1760   37.6810   24.9620 C   0  0  0  0  0  3  0  0  0  0  0  0
   -0.1660   38.3100   24.1160 C   0  0  0  0  0  0  0  0  0  0  0  0
   -0.6100   38.8190   22.8830 C   0  0  0  0  0  3  0  0  0  0  0  0
    0.2190   39.4340   21.9830 C   0  0  0  0  0  3  0  0  0  0  0  0
    1.5540   39.5640   22.2910 C   0  0  0  0  0  0  0  0  0  0  0  0
    2.4110   40.1870   21.3880 C   0  0  0  0  0  3  0  0  0  0  0  0
    3.7410   40.3120   21.7000 C   0  0  0  0  0  3  0  0  0  0  0  0
    4.1780   39.8140   22.9050 C   0  0  0  0  0  3  0  0  0  0  0  0
    3.3400   39.2010   23.7990 C   0  0  0  0  0  3  0  0  0  0  0  0
    1.9900   39.0620   23.5040 C   0  0  0  0  0  0  0  0  0  0  0  0
    1.1520   38.4440   24.4080 C   0  0  0  0  0  3  0  0  0  0  0  0
   -1.9290   33.2550   24.9050 C   0  0  0  0  0  1  0  0  0  0  0  0
   -0.7950   34.2040   25.3240 C   0  0  2  0  0  0  0  0  0  0  0  0
   -1.2710   35.2520   26.1870 C   0  0  0  0  0  0  0  0  0  0  0  0
   -1.7060   35.2820   27.3540 O   0  0  0  0  0  0  0  0  0  0  0  0
   -1.0300   36.2040   25.1430 C   0  0  0  0  0  0  0  0  0  0  0  0
   -0.5960   35.2470   24.3540 C   0  0  0  0  0  0  0  0  0  0  0  0
   -0.1080   35.2140   23.0370 O   0  0  0  0  0  0  0  0  0  0  0  0
   -0.7730   35.4350   22.3050 H   0  0  0  0  0  0  0  0  0  0  0  0
    0.4070   33.4540   25.7590 C   0  0  0  0  0  0  0  0  0  0  0  0
    0.9990   32.6030   24.8550 C   0  0  0  0  0  3  0  0  0  0  0  0
    2.1230   31.8620   25.1720 C   0  0  0  0  0  3  0  0  0  0  0  0
    2.6840   31.9610   26.4210 C   0  0  0  0  0  3  0  0  0  0  0  0
    2.0870   32.8160   27.3240 C   0  0  0  0  0  3  0  0  0  0  0  0
    0.9620   33.5520   26.9970 C   0  0  0  0  0  3  0  0  0  0  0  0
   -1.3080   38.4300   26.2230 C   0  0  0  0  0  0  0  0  0  0  0  0
   -2.5110   38.4980   26.8910 C   0  0  0  0  0  3  0  0  0  0  0  0
   -2.6810   39.1940   28.0570 C   0  0  0  0  0  3  0  0  0  0  0  0
   -1.6120   39.8590   28.6000 C   0  0  0  0  0  3  0  0  0  0  0  0
   -0.4000   39.8000   27.9430 C   0  0  0  0  0  3  0  0  0  0  0  0
   -0.2230   39.0980   26.7620 C   0  0  0  0  0  3  0  0  0  0  0  0
  6  7  1  0
  6  5  2  0
  7  8  2  0
  4  5  1  0
  4  3  2  0
  5 10  1  0
 19 18  1  0
  3  2  1  0
  8  9  1  0
 18 17  1  0
 10  9  2  0
 10 11  1  0
  2 11  2  0
  2  1  1  0
 17 16  2  0
 17 13  1  0
 21 22  2  0
 21 20  1  0
 13 12  1  6
  1 16  1  0
  1 26  1  0
 16 14  1  0
 22 23  1  0
 13 20  1  0
 13 14  1  0
 20 25  2  0
 14 15  2  0
 26 31  1  0
 26 27  2  0
 23 24  2  0
 31 30  2  0
 27 28  1  0
 25 24  1  0
 30 29  1  0
 28 29  2  0
M  RAD  8   1   2   3   2   4   2   6   2   7   2   8   2   9   2  11   2
M  RAD  8  12   2  21   2  22   2  23   2  24   2  25   2  27   2  28   2
M  RAD  3  29   2  30   2  31   2
M  END
>  <_TriposChargeType>  (1) 
GASTEIGER

>  <SuCOS_score>  (1) 
0.19452663518800595

>  <Volume_score>  (1) 
0.22882105728821056

>  <Feature_score>  (1) 
0.16023221308780136

$$$$
