DOCK.F10.P1t31/L1006_ligand.pdbt
     RDKit          3D

 42 46  0  0  0  0  0  0  0  0999 V2000
   -1.6350   38.1940   26.4290 C   0  0  0  0  0  3  0  0  0  0  0  0
   -1.0710   39.1570   24.0720 C   0  0  0  0  0  0  0  0  0  0  0  0
   -0.7970   38.5470   25.3040 C   0  0  0  0  0  0  0  0  0  0  0  0
    0.5660   38.4580   25.3530 N   0  0  0  0  0  0  0  0  0  0  0  0
    1.1350   38.9630   24.2730 C   0  0  0  0  0  0  0  0  0  0  0  0
    2.4910   39.0800   23.9460 C   0  0  0  0  0  3  0  0  0  0  0  0
    2.8650   39.6640   22.7670 C   0  0  0  0  0  0  0  0  0  0  0  0
    4.3110   39.8010   22.3940 C   0  0  0  0  0  1  0  0  0  0  0  0
    1.8630   40.1160   21.9470 C   0  0  0  0  0  3  0  0  0  0  0  0
    0.5290   40.0000   22.2690 C   0  0  0  0  0  3  0  0  0  0  0  0
    0.1310   39.4140   23.4510 C   0  0  0  0  0  0  0  0  0  0  0  0
    1.1270   38.0360   26.1530 H   0  0  0  0  0  0  0  0  0  0  0  0
   -2.3950   39.3510   23.5410 C   0  0  0  0  0  2  0  0  0  0  0  0
   -2.6480   39.1510   22.0710 C   0  0  1  0  0  0  0  0  0  0  0  0
   -1.4850   38.3530   21.4360 C   0  0  0  0  0  1  0  0  0  0  0  0
   -3.9130   38.4510   21.7260 C   0  0  0  0  0  1  0  0  0  0  0  0
   -3.9430   42.5630   20.8000 C   0  0  0  0  0  1  0  0  0  0  0  0
   -3.8320   41.2360   21.4920 C   0  0  0  0  0  0  0  0  0  0  0  0
   -4.7840   40.8250   22.2020 O   0  0  0  0  0  0  0  0  0  0  0  0
   -2.6390   40.4450   21.3400 N   0  0  0  0  0  0  0  0  0  0  0  0
   -1.8520   40.7650   20.7660 H   0  0  0  0  0  0  0  0  0  0  0  0
   -1.7130   36.6900   26.5610 C   0  0  0  0  0  0  0  0  0  0  0  0
   -0.9210   35.6790   26.3910 C   0  0  0  0  0  0  0  0  0  0  0  0
    0.4200   35.5730   25.9880 O   0  0  0  0  0  0  0  0  0  0  0  0
   -1.9120   34.6660   26.7660 C   0  0  1  0  0  0  0  0  0  0  0  0
   -1.6570   33.9090   28.0340 C   0  0  0  0  0  1  0  0  0  0  0  0
   -2.7980   35.8140   26.9530 C   0  0  0  0  0  0  0  0  0  0  0  0
   -3.9960   35.9790   27.3050 O   0  0  0  0  0  0  0  0  0  0  0  0
    1.0910   35.3850   26.7310 H   0  0  0  0  0  0  0  0  0  0  0  0
   -2.2120   33.8070   25.5780 C   0  0  0  0  0  0  0  0  0  0  0  0
   -1.9730   34.2340   24.2830 C   0  0  0  0  0  3  0  0  0  0  0  0
   -2.2570   33.4210   23.1950 C   0  0  0  0  0  3  0  0  0  0  0  0
   -2.7860   32.1620   23.3790 C   0  0  0  0  0  0  0  0  0  0  0  0
   -3.0970   31.2730   22.2020 C   0  0  0  0  0  1  0  0  0  0  0  0
   -3.0310   31.7140   24.6390 C   0  0  0  0  0  3  0  0  0  0  0  0
   -2.7420   32.5390   25.7060 C   0  0  0  0  0  3  0  0  0  0  0  0
   -1.4800   38.8090   27.7300 C   0  0  0  0  0  0  0  0  0  0  0  0
   -2.0230   38.2130   28.8310 C   0  0  0  0  0  3  0  0  0  0  0  0
   -1.9140   38.7680   30.0880 C   0  0  0  0  0  3  0  0  0  0  0  0
   -1.2430   39.9630   30.2930 C   0  0  0  0  0  3  0  0  0  0  0  0
   -0.6900   40.5790   29.2000 C   0  0  0  0  0  3  0  0  0  0  0  0
   -0.8050   40.0160   27.9510 C   0  0  0  0  0  3  0  0  0  0  0  0
 21 20  1  0
 17 18  1  0
 20 18  1  0
 20 14  1  0
 14 15  1  6
 18 19  2  0
 16 14  1  0
  9 10  1  0
  9  7  2  0
 14 13  1  0
 34 33  1  0
 10 11  2  0
  8  7  1  0
  7  6  1  0
 32 33  1  0
 32 31  2  0
 33 35  2  0
 11  2  1  0
 11  5  1  0
 13  2  1  0
  6  5  2  0
  2  3  2  0
  5  4  1  0
 31 30  1  0
 35 36  1  0
  3  4  1  0
  3  1  1  0
  4 12  1  0
 30 36  2  0
 30 25  1  0
 24 23  1  0
 24 29  1  0
 23 22  2  0
 23 25  1  0
  1 22  1  0
  1 37  1  0
 22 27  1  0
 25 27  1  0
 25 26  1  1
 27 28  2  0
 37 42  1  0
 37 38  2  0
 42 41  2  0
 38 39  1  0
 41 40  1  0
 39 40  2  0
M  RAD  8   1   2   6   2   8   2   9   2  10   2  13   3  15   2  16   2
M  RAD  8  17   2  26   2  31   2  32   2  34   2  35   2  36   2  38   2
M  RAD  4  39   2  40   2  41   2  42   2
M  END
>  <_TriposChargeType>  (1) 
GASTEIGER

>  <SuCOS_score>  (1) 
0.21668973046802928

>  <Volume_score>  (1) 
0.36196048128932556

>  <Feature_score>  (1) 
0.07141897964673301

$$$$
