DOCK.F10.P1t31/L1004_ligand.pdbt
     RDKit          3D

 33 36  0  0  0  0  0  0  0  0999 V2000
   -1.0500   38.1180   24.8780 C   0  0  0  0  0  3  0  0  0  0  0  0
    0.2340   39.1590   22.9010 C   0  0  0  0  0  0  0  0  0  0  0  0
    0.1190   38.5730   24.1540 C   0  0  0  0  0  0  0  0  0  0  0  0
    1.3740   38.5290   24.6870 N   0  0  0  0  0  0  0  0  0  0  0  0
    2.2830   39.0510   23.8550 C   0  0  0  0  0  0  0  0  0  0  0  0
    3.6510   39.2250   23.9390 C   0  0  0  0  0  3  0  0  0  0  0  0
    4.3660   39.8020   22.9090 C   0  0  0  0  0  3  0  0  0  0  0  0
    3.6820   40.2030   21.7820 C   0  0  0  0  0  0  0  0  0  0  0  0
    4.3620   40.7760   20.7590 F   0  0  0  0  0  0  0  0  0  0  0  0
    2.3030   40.0170   21.7160 C   0  0  0  0  0  3  0  0  0  0  0  0
    1.5600   39.4490   22.7240 C   0  0  0  0  0  0  0  0  0  0  0  0
    1.6530   38.1390   25.6390 H   0  0  0  0  0  0  0  0  0  0  0  0
   -1.4000   38.1000   21.2990 C   0  0  0  0  0  1  0  0  0  0  0  0
   -0.8860   39.3320   21.9990 C   0  0  0  0  0  3  0  0  0  0  0  0
   -2.1180   39.8410   22.8050 C   0  0  0  0  0  1  0  0  0  0  0  0
   -1.2130   36.6080   24.8660 C   0  0  0  0  0  0  0  0  0  0  0  0
   -0.4080   35.6850   25.3520 C   0  0  0  0  0  0  0  0  0  0  0  0
    0.8010   36.0000   25.9970 O   0  0  0  0  0  0  0  0  0  0  0  0
   -0.9340   34.3180   25.1350 C   0  0  0  0  0  3  0  0  0  0  0  0
   -2.1520   34.5070   24.4210 N   0  0  0  0  0  0  0  0  0  0  0  0
   -2.3370   35.9000   24.2620 C   0  0  0  0  0  0  0  0  0  0  0  0
   -3.3060   36.5080   23.6930 O   0  0  0  0  0  0  0  0  0  0  0  0
    0.9680   35.6660   26.9430 H   0  0  0  0  0  0  0  0  0  0  0  0
   -2.7790   33.7460   24.0860 H   0  0  0  0  0  0  0  0  0  0  0  0
   -1.1170   33.5620   26.4290 C   0  0  0  0  0  3  0  0  0  0  0  0
    0.2240   33.1900   27.0330 C   0  0  0  0  0  1  0  0  0  0  0  0
   -1.8330   34.4580   27.4040 C   0  0  0  0  0  1  0  0  0  0  0  0
   -1.3210   38.6900   26.1960 C   0  0  0  0  0  0  0  0  0  0  0  0
   -0.4310   39.5020   26.8760 C   0  0  0  0  0  3  0  0  0  0  0  0
   -0.7320   40.0430   28.1110 C   0  0  0  0  0  3  0  0  0  0  0  0
   -1.9410   39.7950   28.7250 C   0  0  0  0  0  3  0  0  0  0  0  0
   -2.8320   38.9890   28.0580 C   0  0  0  0  0  3  0  0  0  0  0  0
   -2.5210   38.4600   26.8330 C   0  0  0  0  0  3  0  0  0  0  0  0
  9  8  1  0
 13 14  1  0
 10  8  1  0
 10 11  2  0
  8  7  2  0
 14 15  1  0
 14  2  1  0
 11  2  1  0
 11  5  1  0
  2  3  2  0
  7  6  1  0
 22 21  2  0
  5  6  2  0
  5  4  1  0
 24 20  1  0
  3  4  1  0
  3  1  1  0
 21 20  1  0
 21 16  1  0
 20 19  1  0
  4 12  1  0
 16  1  1  0
 16 17  2  0
  1 28  1  0
 19 17  1  0
 19 25  1  0
 17 18  1  0
 18 23  1  0
 28 33  1  0
 28 29  2  0
 25 26  1  0
 25 27  1  0
 33 32  2  0
 29 30  1  0
 32 31  1  0
 30 31  2  0
M  RAD  8   1   2   6   2   7   2  10   2  13   2  14   2  15   2  19   2
M  RAD  8  25   2  26   2  27   2  29   2  30   2  31   2  32   2  33   2
M  END
>  <_TriposChargeType>  (1) 
GASTEIGER

>  <SuCOS_score>  (1) 
0.2726153366136971

>  <Volume_score>  (1) 
0.31320379774784723

>  <Feature_score>  (1) 
0.23202687547954687

$$$$
