DOCK.F10.P1t31/L1013_ligand.pdbt
     RDKit          3D

 27 30  0  0  0  0  0  0  0  0999 V2000
   -5.1650   37.0690   21.4430 N   0  0  0  0  0  4  0  0  0  0  0  0
   -4.3730   38.0870   21.8870 C   0  0  0  0  0  0  0  0  0  0  0  0
   -3.0920   37.9610   21.4010 C   0  0  0  0  0  0  0  0  0  0  0  0
   -3.1480   36.7850   20.6160 C   0  0  0  0  0  0  0  0  0  0  0  0
   -2.2010   36.1420   19.8500 C   0  0  0  0  0  3  0  0  0  0  0  0
   -2.5160   34.9990   19.1420 C   0  0  0  0  0  3  0  0  0  0  0  0
   -3.7890   34.4930   19.1990 C   0  0  0  0  0  3  0  0  0  0  0  0
   -4.7470   35.1190   19.9560 C   0  0  0  0  0  3  0  0  0  0  0  0
   -4.4060   36.2850   20.6690 C   0  0  0  0  0  0  0  0  0  0  0  0
   -4.9150   39.1460   22.7400 C   0  0  0  0  0  0  0  0  0  0  0  0
   -5.3430   38.8000   23.8990 O   0  0  0  0  0  1  0  0  0  0  0  0
   -5.0030   40.4780   22.4000 O   0  0  0  0  0  0  0  0  0  0  0  0
   -6.5730   36.8070   21.7160 C   0  0  0  0  0  2  0  0  0  0  0  0
   -7.4380   37.2020   20.5450 C   0  0  0  0  0  2  0  0  0  0  0  0
   -9.4850   38.1990   20.1010 C   0  0  0  0  0  1  0  0  0  0  0  0
   -8.2700   38.2650   20.7710 O   0  0  0  0  0  0  0  0  0  0  0  0
   -1.9130   38.8260   21.5330 C   0  0  0  0  0  2  0  0  0  0  0  0
   -0.9260   38.6560   22.5470 C   0  0  0  0  0  0  0  0  0  0  0  0
   -1.2570   38.0720   23.7880 C   0  0  0  0  0  3  0  0  0  0  0  0
   -0.3940   37.9290   24.8250 C   0  0  0  0  0  3  0  0  0  0  0  0
    0.8930   38.3650   24.7110 C   0  0  0  0  0  3  0  0  0  0  0  0
    1.2860   38.9440   23.5340 C   0  0  0  0  0  0  0  0  0  0  0  0
    2.5920   39.4010   23.4050 C   0  0  0  0  0  3  0  0  0  0  0  0
    3.0440   40.0010   22.2430 C   0  0  0  0  0  3  0  0  0  0  0  0
    2.1620   40.1350   21.2190 C   0  0  0  0  0  3  0  0  0  0  0  0
    0.8780   39.6800   21.3590 C   0  0  0  0  0  3  0  0  0  0  0  0
    0.3750   39.0770   22.4820 C   0  0  0  0  0  0  0  0  0  0  0  0
  6  7  2  0
  6  5  1  0
  7  8  1  0
  5  4  2  0
  8  9  2  0
 15 16  1  0
 14 16  1  0
 14 13  1  0
  4  9  1  0
  4  3  1  0
  9  1  1  0
 25 26  1  0
 25 24  2  0
 26 27  2  0
  3 17  1  0
  3  2  2  0
  1 13  1  0
  1  2  1  0
 17 18  1  0
  2 10  1  0
 24 23  1  0
 12 10  2  0
 27 18  1  0
 27 22  1  0
 18 19  2  0
 10 11  1  0
 23 22  2  0
 22 21  1  0
 19 20  1  0
 21 20  2  0
M  RAD  8   5   2   6   2   7   2   8   2  13   3  14   3  15   2  17   3
M  CHG  2   1   1  11  -1
M  RAD  7  19   2  20   2  21   2  23   2  24   2  25   2  26   2
M  END
>  <_TriposChargeType>  (1) 
GASTEIGER

>  <SuCOS_score>  (1) 
0.24852558796376897

>  <Volume_score>  (1) 
0.39410009943652635

>  <Feature_score>  (1) 
0.1029510764910116

$$$$
