DOCK.F40.P4k60/L1001_ligand.pdbt
     RDKit          3D

 32 35  0  0  0  0  0  0  0  0999 V2000
   -4.3840   38.5410   21.5640 C   0  0  0  0  0  0  0  0  0  0  0  0
   -3.2800   39.3880   21.7480 C   0  0  0  0  0  0  0  0  0  0  0  0
   -2.1680   38.7510   21.3700 N   0  0  0  0  0  4  0  0  0  0  0  0
   -2.5310   37.5270   20.9540 C   0  0  0  0  0  0  0  0  0  0  0  0
   -1.7520   36.4650   20.4560 C   0  0  0  0  0  3  0  0  0  0  0  0
   -2.3190   35.2860   20.0810 C   0  0  0  0  0  3  0  0  0  0  0  0
   -3.6800   35.1060   20.1800 C   0  0  0  0  0  0  0  0  0  0  0  0
   -4.2850   33.9520   19.8190 F   0  0  0  0  0  0  0  0  0  0  0  0
   -4.4340   36.1610   20.6720 C   0  0  0  0  0  3  0  0  0  0  0  0
   -3.8840   37.3770   21.0640 C   0  0  0  0  0  0  0  0  0  0  0  0
   -3.3920   40.7390   22.2730 C   0  0  0  0  0  0  0  0  0  0  0  0
   -3.8360   40.9360   23.4110 O   0  0  0  0  0  1  0  0  0  0  0  0
   -3.0000   41.8000   21.4930 O   0  0  0  0  0  0  0  0  0  0  0  0
   -5.7540   38.9080   21.8700 C   0  0  0  0  0  2  0  0  0  0  0  0
   -6.8000   40.2300   20.1030 C   0  0  0  0  0  0  0  0  0  0  0  0
   -6.0940   41.2350   20.3930 O   0  0  0  0  0  0  0  0  0  0  0  0
   -6.7020   39.0040   20.8170 N   0  0  0  0  0  0  0  0  0  0  0  0
   -7.5640   37.9040   20.3990 C   0  0  0  0  0  1  0  0  0  0  0  0
   -7.6880   40.3380   19.0580 O   0  0  0  0  0  0  0  0  0  0  0  0
   -9.8010   41.0000   18.2000 C   0  0  0  0  0  1  0  0  0  0  0  0
   -8.4960   41.4660   18.8010 C   0  0  0  0  0  2  0  0  0  0  0  0
   -0.8170   39.2280   21.3830 C   0  0  0  0  0  2  0  0  0  0  0  0
   -0.0960   38.8920   22.6310 C   0  0  0  0  0  0  0  0  0  0  0  0
   -0.7010   38.3680   23.7550 C   0  0  0  0  0  3  0  0  0  0  0  0
    0.0200   38.0660   24.9090 C   0  0  0  0  0  3  0  0  0  0  0  0
    1.3860   38.3140   24.8960 C   0  0  0  0  0  3  0  0  0  0  0  0
    2.0320   38.8390   23.7950 C   0  0  0  0  0  0  0  0  0  0  0  0
    3.3860   39.0780   23.8000 C   0  0  0  0  0  3  0  0  0  0  0  0
    3.9920   39.6010   22.6860 C   0  0  0  0  0  3  0  0  0  0  0  0
    3.2930   39.9010   21.5420 C   0  0  0  0  0  3  0  0  0  0  0  0
    1.9280   39.6490   21.5650 C   0  0  0  0  0  3  0  0  0  0  0  0
    1.2640   39.1260   22.6550 C   0  0  0  0  0  0  0  0  0  0  0  0
 20 21  1  0
 21 19  1  0
 19 15  1  0
  8  7  1  0
  6  7  2  0
  6  5  1  0
 15 16  2  0
 15 17  1  0
  7  9  1  0
 18 17  1  0
  5  4  2  0
  9 10  2  0
 17 14  1  0
  4 10  1  0
  4  3  1  0
 10  1  1  0
  3 22  1  0
  3  2  1  0
 22 23  1  0
 13 11  2  0
 30 31  1  0
 30 29  2  0
  1  2  2  0
  1 14  1  0
 31 32  2  0
  2 11  1  0
 11 12  1  0
 23 32  1  0
 23 24  2  0
 32 27  1  0
 29 28  1  0
 24 25  1  0
 27 28  2  0
 27 26  1  0
 26 25  2  0
M  RAD  8   5   2   6   2   9   2  14   3  18   2  20   2  21   3  22   3
M  CHG  2   3   1  12  -1
M  RAD  7  24   2  25   2  26   2  28   2  29   2  30   2  31   2
M  END
>  <_TriposChargeType>  (1) 
GASTEIGER

>  <SuCOS_score>  (1) 
0.3431241299666218

>  <Volume_score>  (1) 
0.5095569550325931

>  <Feature_score>  (1) 
0.1766913049006505

$$$$
