DOCK.F40.P4k60/L1005_ligand.pdbt
     RDKit          3D

 31 34  0  0  0  0  0  0  0  0999 V2000
   -4.2920   38.4260   21.5960 C   0  0  0  0  0  0  0  0  0  0  0  0
   -3.1860   39.3000   21.6830 C   0  0  0  0  0  0  0  0  0  0  0  0
   -2.0910   38.6890   21.2510 N   0  0  0  0  0  4  0  0  0  0  0  0
   -2.4460   37.3990   20.8750 C   0  0  0  0  0  0  0  0  0  0  0  0
   -1.6170   36.4050   20.3980 C   0  0  0  0  0  3  0  0  0  0  0  0
   -2.2000   35.1610   20.1210 C   0  0  0  0  0  3  0  0  0  0  0  0
   -3.5450   34.9770   20.3270 C   0  0  0  0  0  0  0  0  0  0  0  0
   -4.1350   33.7620   20.0560 F   0  0  0  0  0  0  0  0  0  0  0  0
   -4.3380   36.0050   20.8070 C   0  0  0  0  0  3  0  0  0  0  0  0
   -3.8000   37.2490   21.0920 C   0  0  0  0  0  0  0  0  0  0  0  0
   -3.3460   40.6510   22.2200 C   0  0  0  0  0  0  0  0  0  0  0  0
   -3.8390   40.8640   23.3820 O   0  0  0  0  0  1  0  0  0  0  0  0
   -2.9900   41.8000   21.5520 O   0  0  0  0  0  0  0  0  0  0  0  0
   -5.6540   38.7750   22.0100 C   0  0  0  0  0  2  0  0  0  0  0  0
   -7.1120   40.0650   20.4120 C   0  0  0  0  0  0  0  0  0  0  0  0
   -7.3920   38.9880   19.7990 O   0  0  0  0  0  0  0  0  0  0  0  0
   -6.2370   39.9730   21.5260 N   0  0  0  0  0  0  0  0  0  0  0  0
   -6.0390   40.9140   22.0060 H   0  0  0  0  0  0  0  0  0  0  0  0
   -8.4000   41.4000   18.8000 C   0  0  0  0  0  1  0  0  0  0  0  0
   -7.6540   41.2760   19.9900 O   0  0  0  0  0  0  0  0  0  0  0  0
   -0.7240   39.1760   21.2000 C   0  0  0  0  0  2  0  0  0  0  0  0
   -0.0250   38.9320   22.4470 C   0  0  0  0  0  0  0  0  0  0  0  0
   -0.6850   38.3770   23.5330 C   0  0  0  0  0  3  0  0  0  0  0  0
   -0.0830   38.0130   24.7160 C   0  0  0  0  0  3  0  0  0  0  0  0
    1.2760   38.2260   24.8030 C   0  0  0  0  0  3  0  0  0  0  0  0
    1.9760   38.7700   23.7740 C   0  0  0  0  0  0  0  0  0  0  0  0
    3.3120   39.0000   23.9480 C   0  0  0  0  0  3  0  0  0  0  0  0
    4.0690   39.6000   22.9490 C   0  0  0  0  0  3  0  0  0  0  0  0
    3.4260   39.9590   21.7690 C   0  0  0  0  0  3  0  0  0  0  0  0
    2.0790   39.7290   21.5860 C   0  0  0  0  0  3  0  0  0  0  0  0
    1.3350   39.1340   22.5730 C   0  0  0  0  0  0  0  0  0  0  0  0
 19 20  1  0
 16 15  2  0
 20 15  1  0
  8  7  1  0
  6  7  2  0
  6  5  1  0
  7  9  1  0
  5  4  2  0
 15 17  1  0
  9 10  2  0
  4 10  1  0
  4  3  1  0
 10  1  1  0
 21  3  1  0
 21 22  1  0
  3  2  1  0
 17 18  1  0
 17 14  1  0
 13 11  2  0
 30 29  1  0
 30 31  2  0
  1  2  2  0
  1 14  1  0
  2 11  1  0
 29 28  2  0
 11 12  1  0
 22 31  1  0
 22 23  2  0
 31 26  1  0
 28 27  1  0
 23 24  1  0
 26 27  2  0
 26 25  1  0
 24 25  2  0
M  RAD  8   5   2   6   2   9   2  14   3  19   2  21   3  23   2  24   2
M  CHG  2   3   1  12  -1
M  RAD  5  25   2  27   2  28   2  29   2  30   2
M  END
>  <_TriposChargeType>  (1) 
GASTEIGER

>  <SuCOS_score>  (1) 
0.34782411617480413

>  <Volume_score>  (1) 
0.5063528891835156

>  <Feature_score>  (1) 
0.1892953431660927

$$$$
