DOCK.F40.P4k60/L1010_ligand.pdbt
     RDKit          3D

 24 27  0  0  0  0  0  0  0  0999 V2000
   -3.2420   39.3200   21.6510 C   0  0  0  0  0  0  0  0  0  0  0  0
   -4.2990   38.4580   21.4420 C   0  0  0  0  0  3  0  0  0  0  0  0
   -3.7600   37.2740   21.0010 C   0  0  0  0  0  0  0  0  0  0  0  0
   -4.3480   36.0550   20.6340 C   0  0  0  0  0  3  0  0  0  0  0  0
   -3.5910   34.9880   20.2160 C   0  0  0  0  0  3  0  0  0  0  0  0
   -2.2370   35.1410   20.1620 C   0  0  0  0  0  3  0  0  0  0  0  0
   -1.6550   36.3380   20.5210 C   0  0  0  0  0  3  0  0  0  0  0  0
   -2.4090   37.4290   20.9470 C   0  0  0  0  0  0  0  0  0  0  0  0
   -2.1060   38.6730   21.3440 N   0  0  0  0  0  0  0  0  0  0  0  0
   -3.9180   40.8750   23.2470 O   0  0  0  0  0  1  0  0  0  0  0  0
   -3.3980   40.6930   22.1270 C   0  0  0  0  0  0  0  0  0  0  0  0
   -3.0000   41.8000   21.4000 O   0  0  0  0  0  0  0  0  0  0  0  0
   -0.7860   39.2030   21.4200 C   0  0  0  0  0  2  0  0  0  0  0  0
   -0.0770   38.9040   22.6650 C   0  0  0  0  0  0  0  0  0  0  0  0
   -0.6970   38.4200   23.7920 C   0  0  0  0  0  3  0  0  0  0  0  0
    0.0750   38.1770   24.9050 C   0  0  0  0  0  3  0  0  0  0  0  0
    1.4360   38.3980   24.9330 C   0  0  0  0  0  3  0  0  0  0  0  0
    2.0720   38.8880   23.7940 C   0  0  0  0  0  0  0  0  0  0  0  0
    3.4310   39.1160   23.8010 C   0  0  0  0  0  3  0  0  0  0  0  0
    4.0290   39.6000   22.6580 C   0  0  0  0  0  3  0  0  0  0  0  0
    3.3000   39.8540   21.5340 C   0  0  0  0  0  0  0  0  0  0  0  0
    3.8530   40.3340   20.3840 F   0  0  0  0  0  0  0  0  0  0  0  0
    1.9510   39.6160   21.5650 C   0  0  0  0  0  3  0  0  0  0  0  0
    1.2850   39.1240   22.6950 C   0  0  0  0  0  0  0  0  0  0  0  0
  6  5  2  0
  6  7  1  0
  5  4  1  0
 22 21  1  0
  7  8  2  0
  4  3  2  0
  8  3  1  0
  8  9  1  0
  3  2  1  0
  9 13  1  0
  9  1  1  0
 12 11  2  0
 13 14  1  0
  2  1  2  0
 21 23  1  0
 21 20  2  0
 23 24  2  0
  1 11  1  0
 11 10  1  0
 20 19  1  0
 14 24  1  0
 14 15  2  0
 24 18  1  0
 15 16  1  0
 18 19  2  0
 18 17  1  0
 16 17  2  0
M  RAD  8   2   2   4   2   5   2   6   2   7   2  13   3  15   2  16   2
M  CHG  1  10  -1
M  RAD  4  17   2  19   2  20   2  23   2
M  END
>  <_TriposChargeType>  (1) 
GASTEIGER

>  <SuCOS_score>  (1) 
0.3269764818926914

>  <Volume_score>  (1) 
0.42978676389349246

>  <Feature_score>  (1) 
0.22416619989189032

$$$$
