DOCK.F40.P4k5z/L1002_ligand.pdbt
     RDKit          3D

 40 44  0  0  0  0  0  0  0  0999 V2000
   -2.4020   37.5390   22.9250 C   0  0  0  0  0  3  0  0  0  0  0  0
    3.2100   39.5880   22.2120 C   0  0  0  0  0  0  0  0  0  0  0  0
    3.3910   39.2010   23.5250 C   0  0  0  0  0  3  0  0  0  0  0  0
    2.3450   38.6360   24.1980 C   0  0  0  0  0  3  0  0  0  0  0  0
    1.1230   38.4630   23.5510 C   0  0  0  0  0  0  0  0  0  0  0  0
   -0.0830   37.9390   23.9500 C   0  0  0  0  0  0  0  0  0  0  0  0
   -0.9890   38.0010   22.9110 C   0  0  0  0  0  0  0  0  0  0  0  0
   -0.3460   38.5630   21.8650 N   0  0  0  0  0  0  0  0  0  0  0  0
    0.9310   38.8490   22.2290 C   0  0  0  0  0  0  0  0  0  0  0  0
    2.0020   39.4210   21.5600 C   0  0  0  0  0  3  0  0  0  0  0  0
   -0.6970   38.7760   20.9050 H   0  0  0  0  0  0  0  0  0  0  0  0
    4.3990   39.8000   20.0610 C   0  0  0  0  0  1  0  0  0  0  0  0
    4.3840   40.1980   21.5240 C   0  0  0  0  0  2  0  0  0  0  0  0
   -0.3530   37.4000   25.2930 C   0  0  0  0  0  2  0  0  0  0  0  0
    0.1150   36.0030   25.4900 C   0  0  0  0  0  2  0  0  0  0  0  0
   -0.8650   35.0790   24.9800 N   0  0  0  0  0  0  0  0  0  0  0  0
   -0.7910   34.4190   23.7470 C   0  0  0  0  0  0  0  0  0  0  0  0
   -1.8650   33.4590   23.2880 C   0  0  0  0  0  1  0  0  0  0  0  0
    0.2000   34.6300   23.0010 O   0  0  0  0  0  0  0  0  0  0  0  0
   -1.7100   34.8890   25.5920 H   0  0  0  0  0  0  0  0  0  0  0  0
   -3.3460   38.7040   23.0230 C   0  0  0  0  0  0  0  0  0  0  0  0
   -3.5590   39.6720   22.1840 C   0  0  0  0  0  0  0  0  0  0  0  0
   -2.9230   39.8450   20.9460 O   0  0  0  0  0  0  0  0  0  0  0  0
   -4.5850   40.6230   22.6780 C   0  0  0  0  0  3  0  0  0  0  0  0
   -5.1660   39.9840   23.8940 C   0  0  0  0  0  2  0  0  0  0  0  0
   -4.2080   38.8920   24.1820 C   0  0  0  0  0  0  0  0  0  0  0  0
   -4.1750   38.2460   25.2760 O   0  0  0  0  0  0  0  0  0  0  0  0
   -3.5230   40.0210   20.1480 H   0  0  0  0  0  0  0  0  0  0  0  0
   -5.6250   40.8930   21.6560 C   0  0  0  0  0  0  0  0  0  0  0  0
   -6.1980   39.8440   20.9780 C   0  0  0  0  0  3  0  0  0  0  0  0
   -7.1740   40.0520   20.0120 C   0  0  0  0  0  3  0  0  0  0  0  0
   -7.5770   41.3460   19.7270 C   0  0  0  0  0  3  0  0  0  0  0  0
   -6.9990   42.3990   20.4100 C   0  0  0  0  0  3  0  0  0  0  0  0
   -6.0330   42.1700   21.3650 C   0  0  0  0  0  3  0  0  0  0  0  0
   -2.6750   36.7280   21.7190 C   0  0  0  0  0  0  0  0  0  0  0  0
   -3.9610   36.3050   21.4960 C   0  0  0  0  0  3  0  0  0  0  0  0
   -4.2770   35.5480   20.3960 C   0  0  0  0  0  3  0  0  0  0  0  0
   -3.2960   35.1990   19.4950 C   0  0  0  0  0  3  0  0  0  0  0  0
   -2.0120   35.6340   19.7380 C   0  0  0  0  0  3  0  0  0  0  0  0
   -1.6910   36.3960   20.8430 C   0  0  0  0  0  3  0  0  0  0  0  0
 38 39  2  0
 38 37  1  0
 32 31  1  0
 32 33  2  0
 39 40  1  0
 31 30  2  0
 12 13  1  0
 28 23  1  0
 37 36  2  0
 33 34  1  0
 40 35  2  0
 11  8  1  0
 23 22  1  0
 30 29  1  0
 34 29  2  0
 36 35  1  0
 13  2  1  0
 10  2  2  0
 10  9  1  0
 29 24  1  0
 35  1  1  0
  8  9  1  0
  8  7  1  0
 22 24  1  0
 22 21  2  0
  2  3  1  0
  9  5  2  0
 24 25  1  0
  7  1  1  0
  7  6  2  0
  1 21  1  0
 19 17  2  0
 21 26  1  0
 18 17  1  0
  3  4  2  0
  5  6  1  0
  5  4  1  0
 17 16  1  0
 25 26  1  0
  6 14  1  0
 26 27  2  0
 16 15  1  0
 16 20  1  0
 14 15  1  0
M  RAD  8   1   2   3   2   4   2  10   2  12   2  13   3  14   3  15   3
M  RAD  8  18   2  24   2  25   3  30   2  31   2  32   2  33   2  34   2
M  RAD  5  36   2  37   2  38   2  39   2  40   2
M  END
>  <_TriposChargeType>  (1) 
GASTEIGER

>  <SuCOS_score>  (1) 
0.327981165169849

>  <Volume_score>  (1) 
0.5257914545052026

>  <Feature_score>  (1) 
0.13017087583449535

$$$$
