DOCK.F40.P4k5z/L1013_ligand.pdbt
     RDKit          3D

 27 30  0  0  0  0  0  0  0  0999 V2000
   -4.2810   38.4510   21.5530 N   0  0  0  0  0  4  0  0  0  0  0  0
   -3.2130   39.2820   21.7280 C   0  0  0  0  0  0  0  0  0  0  0  0
   -2.0510   38.6850   21.2940 C   0  0  0  0  0  0  0  0  0  0  0  0
   -2.4800   37.4190   20.8330 C   0  0  0  0  0  0  0  0  0  0  0  0
   -1.7980   36.3680   20.2590 C   0  0  0  0  0  3  0  0  0  0  0  0
   -2.4610   35.2220   19.8630 C   0  0  0  0  0  3  0  0  0  0  0  0
   -3.8170   35.1250   20.0430 C   0  0  0  0  0  3  0  0  0  0  0  0
   -4.5130   36.1610   20.6120 C   0  0  0  0  0  3  0  0  0  0  0  0
   -3.8190   37.3210   21.0060 C   0  0  0  0  0  0  0  0  0  0  0  0
   -3.3850   40.6260   22.2810 C   0  0  0  0  0  0  0  0  0  0  0  0
   -2.9010   41.6020   21.6030 O   0  0  0  0  0  1  0  0  0  0  0  0
   -4.0200   40.9260   23.4660 O   0  0  0  0  0  0  0  0  0  0  0  0
   -5.6850   38.6710   21.8790 C   0  0  0  0  0  2  0  0  0  0  0  0
   -6.3670   39.5000   20.8200 C   0  0  0  0  0  2  0  0  0  0  0  0
   -6.5730   41.7990   20.5860 C   0  0  0  0  0  1  0  0  0  0  0  0
   -6.9520   40.6520   21.2710 O   0  0  0  0  0  0  0  0  0  0  0  0
   -0.6750   39.1890   21.2060 C   0  0  0  0  0  2  0  0  0  0  0  0
    0.2870   39.0260   22.2450 C   0  0  0  0  0  0  0  0  0  0  0  0
   -0.1110   38.6530   23.5470 C   0  0  0  0  0  3  0  0  0  0  0  0
    0.7320   38.5370   24.6040 C   0  0  0  0  0  3  0  0  0  0  0  0
    2.0640   38.7850   24.4510 C   0  0  0  0  0  3  0  0  0  0  0  0
    2.5220   39.1530   23.2130 C   0  0  0  0  0  0  0  0  0  0  0  0
    3.8750   39.4190   23.0430 C   0  0  0  0  0  3  0  0  0  0  0  0
    4.3950   39.8030   21.8190 C   0  0  0  0  0  3  0  0  0  0  0  0
    3.5340   39.9150   20.7760 C   0  0  0  0  0  3  0  0  0  0  0  0
    2.2020   39.6500   20.9580 C   0  0  0  0  0  3  0  0  0  0  0  0
    1.6320   39.2660   22.1420 C   0  0  0  0  0  0  0  0  0  0  0  0
  6  7  2  0
  6  5  1  0
  7  8  1  0
  5  4  2  0
 15 16  1  0
  8  9  2  0
 25 26  1  0
 25 24  2  0
 14 16  1  0
 14 13  1  0
  4  9  1  0
  4  3  1  0
 26 27  2  0
  9  1  1  0
 17  3  1  0
 17 18  1  0
  3  2  2  0
  1  2  1  0
  1 13  1  0
 11 10  1  0
  2 10  1  0
 24 23  1  0
 27 18  1  0
 27 22  1  0
 18 19  2  0
 10 12  2  0
 23 22  2  0
 22 21  1  0
 19 20  1  0
 21 20  2  0
M  RAD  8   5   2   6   2   7   2   8   2  13   3  14   3  15   2  17   3
M  CHG  2   1   1  11  -1
M  RAD  7  19   2  20   2  21   2  23   2  24   2  25   2  26   2
M  END
>  <_TriposChargeType>  (1) 
GASTEIGER

>  <SuCOS_score>  (1) 
0.3426314791259885

>  <Volume_score>  (1) 
0.5137553861451774

>  <Feature_score>  (1) 
0.1715075721067997

$$$$
