DOCK.F40.P4k5z/L1015_ligand.pdbt
     RDKit          3D

 32 35  0  0  0  0  0  0  0  0999 V2000
   -2.5270   37.3500   21.8650 N   0  0  0  0  0  0  0  0  0  0  0  0
   -1.8440   36.6020   22.1140 H   0  0  0  0  0  0  0  0  0  0  0  0
   -3.7740   36.9780   21.3350 C   0  0  0  0  0  0  0  0  0  0  0  0
   -4.9330   37.7270   21.4000 C   0  0  0  0  0  3  0  0  0  0  0  0
   -6.1400   37.3360   20.8530 C   0  0  0  0  0  3  0  0  0  0  0  0
   -6.2220   36.1370   20.2000 C   0  0  0  0  0  0  0  0  0  0  0  0
   -5.0820   35.3640   20.1170 C   0  0  0  0  0  3  0  0  0  0  0  0
   -3.9050   35.7540   20.6560 C   0  0  0  0  0  0  0  0  0  0  0  0
   -7.4640   35.6510   19.5930 C   0  0  0  0  0  0  0  0  0  0  0  0
   -8.6260   36.4010   19.6000 C   0  0  0  0  0  3  0  0  0  0  0  0
   -9.7830   35.9060   19.0140 C   0  0  0  0  0  3  0  0  0  0  0  0
   -9.7680   34.7000   18.4460 N   0  0  0  0  0  0  0  0  0  0  0  0
   -8.6620   33.9340   18.4160 C   0  0  0  0  0  3  0  0  0  0  0  0
   -7.5160   34.4160   18.9910 C   0  0  0  0  0  3  0  0  0  0  0  0
   -2.4930   34.7410   20.5250 S   0  0  1  0  0  6  0  0  0  0  0  0
   -1.9500   34.7560   18.8350 C   0  0  0  0  0  1  0  0  0  0  0  0
   -1.4000   35.2830   21.4000 O   0  0  0  0  0  0  0  0  0  0  0  0
   -2.7720   33.3410   21.0000 O   0  0  0  0  0  0  0  0  0  0  0  0
   -2.1060   38.9770   22.1040 S   0  0  2  0  0  6  0  0  0  0  0  0
   -2.7490   39.4520   23.4000 O   0  0  0  0  0  0  0  0  0  0  0  0
   -2.6990   39.8400   21.0210 O   0  0  0  0  0  0  0  0  0  0  0  0
   -0.0050   38.2000   24.4160 C   0  0  0  0  0  1  0  0  0  0  0  0
    0.5200   38.8930   23.1660 C   0  0  0  0  0  0  0  0  0  0  0  0
   -0.3770   39.2200   22.1910 C   0  0  0  0  0  0  0  0  0  0  0  0
    0.5770   39.9550   21.0000 S   0  0  0  0  0  0  0  0  0  0  0  0
    2.1110   39.8360   21.7640 C   0  0  0  0  0  0  0  0  0  0  0  0
    3.4000   40.2290   21.3910 C   0  0  0  0  0  3  0  0  0  0  0  0
    4.4730   40.0000   22.2250 C   0  0  0  0  0  3  0  0  0  0  0  0
    4.1700   39.3740   23.4140 C   0  0  0  0  0  0  0  0  0  0  0  0
    5.2180   39.1380   24.2540 F   0  0  0  0  0  0  0  0  0  0  0  0
    2.9190   38.9830   23.7950 C   0  0  0  0  0  3  0  0  0  0  0  0
    1.8120   39.2130   22.9440 C   0  0  0  0  0  0  0  0  0  0  0  0
 13 12  2  0
 13 14  1  0
 12 11  1  0
 15 16  1  6
 14  9  2  0
 11 10  2  0
  9 10  1  0
  9  6  1  0
  7  6  2  0
  7  8  1  0
  6  5  1  0
 15  8  1  0
 15 18  2  0
 15 17  2  0
  8  3  2  0
  5  4  2  0
 25 26  1  0
 25 24  1  0
 21 19  2  0
  3  4  1  0
  3  1  1  0
 27 26  1  0
 27 28  2  0
 26 32  2  0
 19  1  1  6
  1  2  1  0
 19 24  1  0
 19 20  2  0
 24 23  2  0
 28 29  1  0
 32 23  1  0
 32 31  1  0
 23 22  1  0
 29 31  2  0
 29 30  1  0
M  RAD  8   4   2   5   2   7   2  10   2  11   2  13   2  14   2  16   2
M  RAD  4  22   2  27   2  28   2  31   2
M  END
>  <_TriposChargeType>  (1) 
GASTEIGER

>  <SuCOS_score>  (1) 
0.30489689909798356

>  <Volume_score>  (1) 
0.4031007751937985

>  <Feature_score>  (1) 
0.20669302300216869

$$$$
