DOCK.F40.P4k5z/L1011_ligand.pdbt
     RDKit          3D

 30 33  0  0  0  0  0  0  0  0999 V2000
   -4.3870   38.4990   21.6120 C   0  0  0  0  0  0  0  0  0  0  0  0
   -3.2790   39.3370   21.6830 C   0  0  0  0  0  0  0  0  0  0  0  0
   -2.2040   38.6500   21.1840 N   0  0  0  0  0  4  0  0  0  0  0  0
   -2.5910   37.4200   20.8000 C   0  0  0  0  0  0  0  0  0  0  0  0
   -1.9370   36.3390   20.2330 C   0  0  0  0  0  3  0  0  0  0  0  0
   -2.5820   35.1590   19.9180 C   0  0  0  0  0  3  0  0  0  0  0  0
   -3.9340   35.0870   20.1950 C   0  0  0  0  0  0  0  0  0  0  0  0
   -4.5760   33.9320   19.8960 F   0  0  0  0  0  0  0  0  0  0  0  0
   -4.5940   36.1470   20.7560 C   0  0  0  0  0  3  0  0  0  0  0  0
   -3.9320   37.3180   21.0610 C   0  0  0  0  0  0  0  0  0  0  0  0
   -3.3670   40.7030   22.1620 C   0  0  0  0  0  0  0  0  0  0  0  0
   -3.8000   40.9560   23.3320 O   0  0  0  0  0  1  0  0  0  0  0  0
   -3.0000   41.8000   21.4000 O   0  0  0  0  0  0  0  0  0  0  0  0
   -5.7890   38.7890   22.0020 C   0  0  0  0  0  2  0  0  0  0  0  0
   -7.7990   40.8090   19.4000 C   0  0  0  0  0  1  0  0  0  0  0  0
   -6.9700   40.5490   20.5720 N   0  0  0  0  0  0  0  0  0  0  0  0
   -6.5810   41.6790   21.3580 C   0  0  0  0  0  1  0  0  0  0  0  0
   -6.6020   39.2220   20.8560 C   0  0  0  0  0  0  0  0  0  0  0  0
   -6.9950   38.2960   20.0690 O   0  0  0  0  0  0  0  0  0  0  0  0
   -0.8700   39.2070   21.1660 C   0  0  0  0  0  2  0  0  0  0  0  0
   -0.1710   38.8720   22.4320 C   0  0  0  0  0  0  0  0  0  0  0  0
   -0.8450   38.1620   23.4220 C   0  0  0  0  0  3  0  0  0  0  0  0
   -0.1860   37.7290   24.5640 C   0  0  0  0  0  3  0  0  0  0  0  0
    1.1480   38.0060   24.7140 C   0  0  0  0  0  3  0  0  0  0  0  0
    1.8630   38.7030   23.7730 C   0  0  0  0  0  0  0  0  0  0  0  0
    3.2130   39.0000   24.0000 C   0  0  0  0  0  3  0  0  0  0  0  0
    3.8720   39.7480   23.0480 C   0  0  0  0  0  3  0  0  0  0  0  0
    3.2670   40.1990   21.9120 C   0  0  0  0  0  3  0  0  0  0  0  0
    1.9090   39.8720   21.7310 C   0  0  0  0  0  3  0  0  0  0  0  0
    1.1900   39.1310   22.6360 C   0  0  0  0  0  0  0  0  0  0  0  0
 15 16  1  0
  8  7  1  0
  6  7  2  0
  6  5  1  0
 19 18  2  0
  7  9  1  0
  5  4  2  0
 16 18  1  0
 16 17  1  0
  9 10  2  0
  4 10  1  0
  4  3  1  0
 18 14  1  0
 10  1  1  0
 20  3  1  0
 20 21  1  0
  3  2  1  0
 13 11  2  0
  1  2  2  0
  1 14  1  0
  2 11  1  0
 29 28  1  0
 29 30  2  0
 28 27  2  0
 11 12  1  0
 21 30  1  0
 21 22  2  0
 30 25  1  0
 27 26  1  0
 22 23  1  0
 25 26  2  0
 25 24  1  0
 23 24  2  0
M  RAD  8   5   2   6   2   9   2  14   3  15   2  17   2  20   3  22   2
M  CHG  2   3   1  12  -1
M  RAD  6  23   2  24   2  26   2  27   2  28   2  29   2
M  END
>  <_TriposChargeType>  (1) 
GASTEIGER

>  <SuCOS_score>  (1) 
0.3475702512930189

>  <Volume_score>  (1) 
0.5167384819356977

>  <Feature_score>  (1) 
0.1784020206503401

$$$$
