DOCK.F10.P2hvx/L1005_ligand.pdbt
     RDKit          3D

 31 34  0  0  0  0  0  0  0  0999 V2000
   -4.2960   38.4590   21.5840 C   0  0  0  0  0  0  0  0  0  0  0  0
   -3.0680   39.1530   21.6440 C   0  0  0  0  0  0  0  0  0  0  0  0
   -2.0840   38.3690   21.2230 N   0  0  0  0  0  4  0  0  0  0  0  0
   -2.6370   37.1410   20.8800 C   0  0  0  0  0  0  0  0  0  0  0  0
   -1.9760   36.0200   20.4250 C   0  0  0  0  0  3  0  0  0  0  0  0
   -2.7460   34.8740   20.1810 C   0  0  0  0  0  3  0  0  0  0  0  0
   -4.1020   34.9060   20.3970 C   0  0  0  0  0  0  0  0  0  0  0  0
   -4.8750   33.7910   20.1600 F   0  0  0  0  0  0  0  0  0  0  0  0
   -4.7220   36.0560   20.8550 C   0  0  0  0  0  3  0  0  0  0  0  0
   -3.9960   37.2080   21.1070 C   0  0  0  0  0  0  0  0  0  0  0  0
   -3.0120   40.5250   22.1480 C   0  0  0  0  0  0  0  0  0  0  0  0
   -3.2020   40.8010   23.3830 O   0  0  0  0  0  1  0  0  0  0  0  0
   -2.7550   41.6290   21.3690 O   0  0  0  0  0  0  0  0  0  0  0  0
   -5.5850   39.0240   21.9950 C   0  0  0  0  0  2  0  0  0  0  0  0
   -7.6960   39.2400   20.6390 C   0  0  0  0  0  0  0  0  0  0  0  0
   -8.1630   38.2020   21.2010 O   0  0  0  0  0  0  0  0  0  0  0  0
   -6.3970   39.6650   21.0270 N   0  0  0  0  0  0  0  0  0  0  0  0
   -6.0560   40.5480   20.5200 H   0  0  0  0  0  0  0  0  0  0  0  0
   -7.9560   41.0530   19.0010 C   0  0  0  0  0  1  0  0  0  0  0  0
   -8.4440   39.9190   19.6800 O   0  0  0  0  0  0  0  0  0  0  0  0
   -0.6580   38.6380   21.1530 C   0  0  0  0  0  2  0  0  0  0  0  0
   -0.0400   38.5720   22.4630 C   0  0  0  0  0  0  0  0  0  0  0  0
   -0.7080   38.0000   23.5350 C   0  0  0  0  0  3  0  0  0  0  0  0
   -0.1650   37.7980   24.7830 C   0  0  0  0  0  3  0  0  0  0  0  0
    1.1410   38.2040   24.9560 C   0  0  0  0  0  3  0  0  0  0  0  0
    1.8450   38.7750   23.9440 C   0  0  0  0  0  0  0  0  0  0  0  0
    3.1190   39.2000   24.2000 C   0  0  0  0  0  3  0  0  0  0  0  0
    3.8700   39.8360   23.2190 C   0  0  0  0  0  3  0  0  0  0  0  0
    3.2850   40.0270   21.9710 C   0  0  0  0  0  3  0  0  0  0  0  0
    2.0020   39.6000   21.7060 C   0  0  0  0  0  3  0  0  0  0  0  0
    1.2640   38.9690   22.6750 C   0  0  0  0  0  0  0  0  0  0  0  0
 19 20  1  0
 20 15  1  0
  8  7  1  0
  6  7  2  0
  6  5  1  0
  7  9  1  0
  5  4  2  0
 18 17  1  0
 15 17  1  0
 15 16  2  0
  9 10  2  0
  4 10  1  0
  4  3  1  0
 17 14  1  0
 10  1  1  0
 21  3  1  0
 21 22  1  0
  3  2  1  0
 13 11  2  0
  1  2  2  0
  1 14  1  0
  2 11  1  0
 30 29  1  0
 30 31  2  0
 29 28  2  0
 11 12  1  0
 22 31  1  0
 22 23  2  0
 31 26  1  0
 28 27  1  0
 23 24  1  0
 26 27  2  0
 26 25  1  0
 24 25  2  0
M  RAD  8   5   2   6   2   9   2  14   3  19   2  21   3  23   2  24   2
M  CHG  2   3   1  12  -1
M  RAD  5  25   2  27   2  28   2  29   2  30   2
M  END
>  <_TriposChargeType>  (1) 
GASTEIGER

>  <SuCOS_score>  (1) 
0.31797334211708345

>  <Volume_score>  (1) 
0.4674621588774721

>  <Feature_score>  (1) 
0.16848452535669475

$$$$
