DOCK.F40.P4k5z/L1006_ligand.pdbt
     RDKit          3D

 42 46  0  0  0  0  0  0  0  0999 V2000
   -2.3590   37.7080   22.4290 C   0  0  0  0  0  3  0  0  0  0  0  0
   -0.0830   38.1270   23.6310 C   0  0  0  0  0  0  0  0  0  0  0  0
   -1.0050   38.1960   22.5760 C   0  0  0  0  0  0  0  0  0  0  0  0
   -0.3010   38.7250   21.5310 N   0  0  0  0  0  0  0  0  0  0  0  0
    0.9550   38.9720   21.8550 C   0  0  0  0  0  0  0  0  0  0  0  0
    1.9960   39.4910   21.0760 C   0  0  0  0  0  3  0  0  0  0  0  0
    3.2440   39.6480   21.6130 C   0  0  0  0  0  0  0  0  0  0  0  0
    4.3750   40.2020   20.7980 C   0  0  0  0  0  1  0  0  0  0  0  0
    3.4120   39.2780   22.9220 C   0  0  0  0  0  3  0  0  0  0  0  0
    2.3880   38.7690   23.6890 C   0  0  0  0  0  3  0  0  0  0  0  0
    1.1230   38.6040   23.1680 C   0  0  0  0  0  0  0  0  0  0  0  0
   -0.6950   38.9240   20.5630 H   0  0  0  0  0  0  0  0  0  0  0  0
   -0.4160   37.7340   24.9750 C   0  0  0  0  0  2  0  0  0  0  0  0
   -0.8670   36.3250   25.2510 C   0  0  1  0  0  0  0  0  0  0  0  0
    0.2000   35.5800   26.0860 C   0  0  0  0  0  1  0  0  0  0  0  0
   -2.1660   36.1950   25.9640 C   0  0  0  0  0  1  0  0  0  0  0  0
   -0.2670   33.3970   22.8020 C   0  0  0  0  0  1  0  0  0  0  0  0
   -0.2460   34.2860   24.0120 C   0  0  0  0  0  0  0  0  0  0  0  0
    0.4000   33.9320   25.0300 O   0  0  0  0  0  0  0  0  0  0  0  0
   -0.9640   35.5330   23.9980 N   0  0  0  0  0  0  0  0  0  0  0  0
   -1.4980   35.8360   23.1770 H   0  0  0  0  0  0  0  0  0  0  0  0
   -3.3350   38.8570   22.5400 C   0  0  0  0  0  0  0  0  0  0  0  0
   -4.5360   39.0430   22.9850 C   0  0  0  0  0  0  0  0  0  0  0  0
   -5.4760   38.1890   23.5860 O   0  0  0  0  0  0  0  0  0  0  0  0
   -4.5880   40.4690   22.6470 C   0  0  1  0  0  0  0  0  0  0  0  0
   -4.6390   41.4340   23.7920 C   0  0  0  0  0  1  0  0  0  0  0  0
   -3.2330   40.2470   22.1450 C   0  0  0  0  0  0  0  0  0  0  0  0
   -2.3470   40.9580   21.6000 O   0  0  0  0  0  0  0  0  0  0  0  0
   -5.5820   38.2880   24.5940 H   0  0  0  0  0  0  0  0  0  0  0  0
   -5.6350   40.6890   21.6000 C   0  0  0  0  0  0  0  0  0  0  0  0
   -6.2280   39.6380   20.9210 C   0  0  0  0  0  3  0  0  0  0  0  0
   -7.1990   39.8640   19.9560 C   0  0  0  0  0  3  0  0  0  0  0  0
   -7.5980   41.1460   19.6480 C   0  0  0  0  0  0  0  0  0  0  0  0
   -8.6500   41.3990   18.6000 C   0  0  0  0  0  1  0  0  0  0  0  0
   -7.0330   42.1990   20.2970 C   0  0  0  0  0  3  0  0  0  0  0  0
   -6.0700   41.9520   21.2540 C   0  0  0  0  0  3  0  0  0  0  0  0
   -2.7450   36.8180   21.3550 C   0  0  0  0  0  0  0  0  0  0  0  0
   -4.0550   36.4710   21.1990 C   0  0  0  0  0  3  0  0  0  0  0  0
   -4.4700   35.6160   20.2000 C   0  0  0  0  0  3  0  0  0  0  0  0
   -3.5680   35.0660   19.3030 C   0  0  0  0  0  3  0  0  0  0  0  0
   -2.2470   35.4010   19.4410 C   0  0  0  0  0  3  0  0  0  0  0  0
   -1.8450   36.2560   20.4410 C   0  0  0  0  0  3  0  0  0  0  0  0
 34 33  1  0
 40 41  2  0
 40 39  1  0
 41 42  1  0
 33 32  1  0
 33 35  2  0
 32 31  2  0
 39 38  2  0
 35 36  1  0
 42 37  2  0
 12  4  1  0
  8  7  1  0
 31 30  1  0
  6  7  2  0
  6  5  1  0
 38 37  1  0
 36 30  2  0
 37  1  1  0
  4  5  1  0
  4  3  1  0
 30 25  1  0
 28 27  2  0
  7  9  1  0
  5 11  2  0
 27 22  1  0
 27 25  1  0
  1 22  1  0
  1  3  1  0
 22 23  2  0
  3  2  2  0
 25 23  1  0
 25 26  1  1
 17 18  1  0
  9 10  2  0
 23 24  1  0
 11  2  1  0
 11 10  1  0
 21 20  1  0
 24 29  1  0
  2 13  1  0
 20 18  1  0
 20 14  1  0
 18 19  2  0
 13 14  1  0
 14 16  1  1
 14 15  1  0
M  RAD  8   1   2   6   2   8   2   9   2  10   2  13   3  15   2  16   2
M  RAD  8  17   2  26   2  31   2  32   2  34   2  35   2  36   2  38   2
M  RAD  4  39   2  40   2  41   2  42   2
M  END
>  <_TriposChargeType>  (1) 
GASTEIGER

>  <SuCOS_score>  (1) 
0.3583128346614588

>  <Volume_score>  (1) 
0.549850944021199

>  <Feature_score>  (1) 
0.1667747253017186

$$$$
