DOCK.F40.P4k5z/L1008_ligand.pdbt
     RDKit          3D

 32 36  0  0  0  0  0  0  0  0999 V2000
   -1.8980   38.3980   23.0220 C   0  0  0  0  0  3  0  0  0  0  0  0
    5.4940   39.4000   23.9780 C   0  0  0  0  0  1  0  0  0  0  0  0
    4.2010   39.4680   23.2290 C   0  0  0  0  0  0  0  0  0  0  0  0
    4.2030   40.0000   21.9590 C   0  0  0  0  0  3  0  0  0  0  0  0
    2.9920   40.0490   21.2920 C   0  0  0  0  0  3  0  0  0  0  0  0
    1.8290   39.5770   21.8960 C   0  0  0  0  0  0  0  0  0  0  0  0
    0.2010   39.4760   21.4000 S   0  0  0  0  0  0  0  0  0  0  0  0
   -0.4770   38.7670   22.7910 C   0  0  0  0  0  0  0  0  0  0  0  0
    0.6090   38.6260   23.6180 C   0  0  0  0  0  0  0  0  0  0  0  0
    0.3930   38.0080   24.9990 C   0  0  0  0  0  1  0  0  0  0  0  0
    1.8000   39.0440   23.1560 C   0  0  0  0  0  0  0  0  0  0  0  0
    3.0490   39.0110   23.8000 C   0  0  0  0  0  3  0  0  0  0  0  0
   -2.8500   39.4690   22.6210 C   0  0  0  0  0  0  0  0  0  0  0  0
   -2.8230   40.6430   22.0770 C   0  0  0  0  0  0  0  0  0  0  0  0
   -1.7810   41.4560   21.6020 O   0  0  0  0  0  0  0  0  0  0  0  0
   -4.2550   40.8300   22.1300 C   0  0  1  0  0  0  0  0  0  0  0  0
   -4.9850   40.8020   20.8000 C   0  0  0  0  0  1  0  0  0  0  0  0
   -4.2830   39.5170   22.7400 C   0  0  0  0  0  0  0  0  0  0  0  0
   -5.2110   38.7510   23.1870 O   0  0  0  0  0  0  0  0  0  0  0  0
   -1.6060   41.4250   20.6060 H   0  0  0  0  0  0  0  0  0  0  0  0
   -4.7470   41.8730   23.0600 C   0  0  0  0  0  0  0  0  0  0  0  0
   -5.0000   41.6220   24.3870 C   0  0  0  0  0  3  0  0  0  0  0  0
   -5.4610   42.6020   25.2510 C   0  0  0  0  0  3  0  0  0  0  0  0
   -5.6750   43.8650   24.7780 C   0  0  0  0  0  3  0  0  0  0  0  0
   -5.4260   44.1310   23.4490 C   0  0  0  0  0  3  0  0  0  0  0  0
   -4.9630   43.1450   22.5860 C   0  0  0  0  0  3  0  0  0  0  0  0
   -2.1890   37.2070   22.1770 C   0  0  0  0  0  0  0  0  0  0  0  0
   -2.7560   37.3210   20.9260 C   0  0  0  0  0  3  0  0  0  0  0  0
   -3.0010   36.2000   20.2010 C   0  0  0  0  0  3  0  0  0  0  0  0
   -2.7000   34.9650   20.6780 C   0  0  0  0  0  3  0  0  0  0  0  0
   -2.1250   34.8570   21.9470 C   0  0  0  0  0  3  0  0  0  0  0  0
   -1.8640   35.9710   22.7090 C   0  0  0  0  0  3  0  0  0  0  0  0
 29 30  1  0
 29 28  2  0
 20 15  1  0
 30 31  2  0
 16 17  1  6
 28 27  1  0
  5  6  2  0
  5  4  1  0
  7  6  1  0
  7  8  1  0
 15 14  1  0
  6 11  1  0
 31 32  1  0
  4  3  2  0
 14 16  1  0
 14 13  2  0
 16 18  1  0
 16 21  1  0
 27 32  2  0
 27  1  1  0
 26 21  1  0
 26 25  2  0
 13 18  1  0
 13  1  1  0
 18 19  2  0
  8  1  1  0
  8  9  2  0
 21 22  2  0
 11  9  1  0
 11 12  2  0
  3 12  1  0
  3  2  1  0
 25 24  1  0
  9 10  1  0
 22 23  1  0
 24 23  2  0
M  RAD  8   1   2   2   2   4   2   5   2  10   2  12   2  17   2  22   2
M  RAD  8  23   2  24   2  25   2  26   2  28   2  29   2  30   2  31   2
M  RAD  1  32   2
M  END
>  <_TriposChargeType>  (1) 
GASTEIGER

>  <SuCOS_score>  (1) 
0.41747204102163643

>  <Volume_score>  (1) 
0.5475638051044083

>  <Feature_score>  (1) 
0.2873802769388646

$$$$
