DOCK.F40.P4k5z/L1017_ligand.pdbt
     RDKit          3D

 31 34  0  0  0  0  0  0  0  0999 V2000
   -2.0780   37.8290   21.4620 C   0  0  0  0  0  0  0  0  0  0  0  0
   -3.2480   38.3380   21.9720 C   0  0  0  0  0  0  0  0  0  0  0  0
   -4.3110   37.6650   21.5480 N   0  0  0  0  0  4  0  0  0  0  0  0
   -3.8740   36.6940   20.7450 C   0  0  0  0  0  0  0  0  0  0  0  0
   -4.4830   35.6880   19.9990 C   0  0  0  0  0  3  0  0  0  0  0  0
   -3.8320   34.7810   19.2170 C   0  0  0  0  0  3  0  0  0  0  0  0
   -2.4360   34.8570   19.1430 C   0  0  0  0  0  0  0  0  0  0  0  0
   -1.7600   34.0000   18.3680 F   0  0  0  0  0  0  0  0  0  0  0  0
   -1.7920   35.8380   19.8740 C   0  0  0  0  0  3  0  0  0  0  0  0
   -2.4650   36.7470   20.6610 C   0  0  0  0  0  0  0  0  0  0  0  0
   -3.2260   39.4870   22.9410 C   0  0  0  0  0  0  0  0  0  0  0  0
   -3.4290   39.2420   24.1470 O   0  0  0  0  0  1  0  0  0  0  0  0
   -3.0150   40.7950   22.5920 O   0  0  0  0  0  0  0  0  0  0  0  0
   -0.7610   38.4410   21.4060 C   0  0  0  0  0  2  0  0  0  0  0  0
    0.2870   38.0180   22.2620 N   0  0  0  0  0  0  0  0  0  0  0  0
    0.7760   37.1540   22.1670 H   0  0  0  0  0  0  0  0  0  0  0  0
    1.0720   40.4320   20.9410 C   0  0  0  0  0  1  0  0  0  0  0  0
    1.3820   39.3840   22.3300 S   0  0  2  0  0  6  0  0  0  0  0  0
    2.7780   38.9790   22.4350 O   0  0  0  0  0  0  0  0  0  0  0  0
    1.0050   40.2000   23.5940 O   0  0  0  0  0  0  0  0  0  0  0  0
   -5.6680   37.8370   21.9980 C   0  0  0  0  0  2  0  0  0  0  0  0
   -6.4530   38.7430   21.1560 C   0  0  0  0  0  0  0  0  0  0  0  0
   -6.0400   39.9700   20.7780 C   0  0  0  0  0  3  0  0  0  0  0  0
   -6.8200   40.8000   20.0150 C   0  0  0  0  0  3  0  0  0  0  0  0
   -8.0780   40.4000   19.6040 C   0  0  0  0  0  3  0  0  0  0  0  0
   -8.5100   39.1210   20.0020 C   0  0  0  0  0  0  0  0  0  0  0  0
   -9.7590   38.7040   19.5950 C   0  0  0  0  0  3  0  0  0  0  0  0
  -10.2050   37.4570   19.9590 C   0  0  0  0  0  3  0  0  0  0  0  0
   -9.4380   36.6130   20.7160 C   0  0  0  0  0  3  0  0  0  0  0  0
   -8.2150   37.0520   21.0930 C   0  0  0  0  0  3  0  0  0  0  0  0
   -7.7030   38.3310   20.7550 C   0  0  0  0  0  0  0  0  0  0  0  0
  8  7  1  0
  7  6  2  0
  7  9  1  0
  6  5  1  0
 27 28  2  0
 27 26  1  0
 25 26  2  0
 25 24  1  0
  9 10  2  0
 28 29  1  0
  5  4  2  0
 26 31  1  0
 24 23  2  0
 10  4  1  0
 10  1  1  0
 29 30  2  0
  4  3  1  0
 31 30  1  0
 31 22  2  0
 23 22  1  0
 18 17  1  6
 22 21  1  0
 14  1  1  0
 14 15  1  0
  1  2  2  0
  3  2  1  0
  3 21  1  0
  2 11  1  0
 16 15  1  0
 15 18  1  0
 18 19  2  0
 18 20  2  0
 13 11  2  0
 11 12  1  0
M  RAD  8   5   2   6   2   9   2  14   3  17   2  21   3  23   2  24   2
M  CHG  2   3   1  12  -1
M  RAD  5  25   2  27   2  28   2  29   2  30   2
M  END
>  <_TriposChargeType>  (1) 
GASTEIGER

>  <SuCOS_score>  (1) 
0.23249063227641095

>  <Volume_score>  (1) 
0.42644135188866794

>  <Feature_score>  (1) 
0.03853991266415396

$$$$
