DOCK.F40.P4k5z/L1012_ligand.pdbt
     RDKit          3D

 30 32  0  0  0  0  0  0  0  0999 V2000
   -2.5500   37.3290   21.9080 N   0  0  0  0  0  0  0  0  0  0  0  0
   -1.8760   36.5760   22.1920 H   0  0  0  0  0  0  0  0  0  0  0  0
   -6.2480   36.1940   20.2840 C   0  0  0  0  0  0  0  0  0  0  0  0
   -6.1400   37.4110   20.9220 C   0  0  0  0  0  3  0  0  0  0  0  0
   -4.9090   37.7800   21.4550 C   0  0  0  0  0  3  0  0  0  0  0  0
   -3.8010   36.9750   21.3680 C   0  0  0  0  0  0  0  0  0  0  0  0
   -3.9320   35.7630   20.7270 C   0  0  0  0  0  0  0  0  0  0  0  0
   -5.1350   35.3580   20.1830 C   0  0  0  0  0  3  0  0  0  0  0  0
   -2.5460   34.7080   20.5950 S   0  0  2  0  0  6  0  0  0  0  0  0
   -2.0000   34.6120   18.9000 C   0  0  0  0  0  1  0  0  0  0  0  0
   -2.8990   33.2880   21.0010 O   0  0  0  0  0  0  0  0  0  0  0  0
   -1.3910   35.2160   21.4000 O   0  0  0  0  0  0  0  0  0  0  0  0
   -7.5230   35.7740   19.7130 C   0  0  0  0  0  0  0  0  0  0  0  0
   -8.3990   36.6150   19.4000 O   0  0  0  0  0  0  0  0  0  0  0  0
   -7.8190   33.8940   18.2010 C   0  0  0  0  0  1  0  0  0  0  0  0
   -7.7780   34.4370   19.5110 O   0  0  0  0  0  0  0  0  0  0  0  0
   -2.1120   38.9570   22.1080 S   0  0  2  0  0  6  0  0  0  0  0  0
   -2.6760   39.5070   23.3890 O   0  0  0  0  0  0  0  0  0  0  0  0
   -2.7340   39.7720   20.9990 O   0  0  0  0  0  0  0  0  0  0  0  0
   -0.3820   39.2270   22.1760 C   0  0  0  0  0  0  0  0  0  0  0  0
    0.5880   39.9770   21.0010 S   0  0  0  0  0  0  0  0  0  0  0  0
    2.1050   39.8620   21.7700 C   0  0  0  0  0  0  0  0  0  0  0  0
    3.4010   40.2650   21.4160 C   0  0  0  0  0  3  0  0  0  0  0  0
    4.4680   40.0300   22.2710 C   0  0  0  0  0  3  0  0  0  0  0  0
    4.1550   39.3970   23.4440 C   0  0  0  0  0  0  0  0  0  0  0  0
    5.2020   39.1590   24.2960 F   0  0  0  0  0  0  0  0  0  0  0  0
    2.9040   38.9960   23.8100 C   0  0  0  0  0  3  0  0  0  0  0  0
    1.8090   39.2320   22.9450 C   0  0  0  0  0  0  0  0  0  0  0  0
    0.5140   38.8990   23.1570 C   0  0  0  0  0  0  0  0  0  0  0  0
   -0.0180   38.1920   24.4010 C   0  0  0  0  0  1  0  0  0  0  0  0
 15 16  1  0
  9 10  1  6
 14 13  2  0
 16 13  1  0
 13  3  1  0
  8  3  2  0
  8  7  1  0
  3  4  1  0
  9  7  1  0
  9 11  2  0
  9 12  2  0
  7  6  2  0
  4  5  2  0
 19 17  2  0
 21 22  1  0
 21 20  1  0
  6  5  1  0
  6  1  1  0
 23 22  2  0
 23 24  1  0
 22 28  1  0
 17  1  1  6
  1  2  1  0
 17 20  1  0
 17 18  2  0
 20 29  2  0
 24 25  2  0
 28 29  1  0
 28 27  2  0
 29 30  1  0
 25 27  1  0
 25 26  1  0
M  RAD  8   4   2   5   2   8   2  10   2  15   2  23   2  24   2  27   2
M  RAD  1  30   2
M  END
>  <_TriposChargeType>  (1) 
GASTEIGER

>  <SuCOS_score>  (1) 
0.3102817419140655

>  <Volume_score>  (1) 
0.40059675102221237

>  <Feature_score>  (1) 
0.21996673280591858

$$$$
