DOCK.F10.P3s0n/L1002_ligand.pdbt
     RDKit          3D

 40 44  0  0  0  0  0  0  0  0999 V2000
   -2.9760   37.4890   22.9960 C   0  0  0  0  0  3  0  0  0  0  0  0
    2.7230   39.4020   22.7370 C   0  0  0  0  0  0  0  0  0  0  0  0
    2.8430   38.8410   23.9930 C   0  0  0  0  0  3  0  0  0  0  0  0
    1.7540   38.2340   24.5530 C   0  0  0  0  0  3  0  0  0  0  0  0
    0.5530   38.1920   23.8500 C   0  0  0  0  0  0  0  0  0  0  0  0
   -0.6840   37.6660   24.1390 C   0  0  0  0  0  0  0  0  0  0  0  0
   -1.5490   37.8950   23.0880 C   0  0  0  0  0  0  0  0  0  0  0  0
   -0.8500   38.5640   22.1460 N   0  0  0  0  0  0  0  0  0  0  0  0
    0.4210   38.7530   22.5850 C   0  0  0  0  0  0  0  0  0  0  0  0
    1.5340   39.3660   22.0300 C   0  0  0  0  0  3  0  0  0  0  0  0
   -1.1590   38.9110   21.2110 H   0  0  0  0  0  0  0  0  0  0  0  0
    3.8040   40.2040   20.6690 C   0  0  0  0  0  1  0  0  0  0  0  0
    3.9400   40.0510   22.1710 C   0  0  0  0  0  2  0  0  0  0  0  0
   -1.0210   36.9680   25.3910 C   0  0  0  0  0  2  0  0  0  0  0  0
   -0.0980   35.8530   25.7290 C   0  0  0  0  0  2  0  0  0  0  0  0
    0.1970   35.0830   24.5490 N   0  0  0  0  0  0  0  0  0  0  0  0
   -0.5790   34.0300   24.0520 C   0  0  0  0  0  0  0  0  0  0  0  0
   -0.1980   33.2740   22.8000 C   0  0  0  0  0  1  0  0  0  0  0  0
   -1.6290   33.7040   24.6670 O   0  0  0  0  0  0  0  0  0  0  0  0
    1.0780   35.3400   24.0170 H   0  0  0  0  0  0  0  0  0  0  0  0
   -3.8760   38.6920   22.9700 C   0  0  0  0  0  0  0  0  0  0  0  0
   -4.0000   39.6160   22.0660 C   0  0  0  0  0  0  0  0  0  0  0  0
   -3.2850   39.6900   20.8610 O   0  0  0  0  0  0  0  0  0  0  0  0
   -5.0130   40.6310   22.4410 C   0  0  0  0  0  3  0  0  0  0  0  0
   -5.6900   40.0880   23.6540 C   0  0  0  0  0  2  0  0  0  0  0  0
   -4.7960   38.9800   24.0610 C   0  0  0  0  0  0  0  0  0  0  0  0
   -4.8540   38.4000   25.1910 O   0  0  0  0  0  0  0  0  0  0  0  0
   -3.8300   39.8420   20.0190 H   0  0  0  0  0  0  0  0  0  0  0  0
   -5.9790   40.8790   21.3440 C   0  0  0  0  0  0  0  0  0  0  0  0
   -6.5700   39.8130   20.7070 C   0  0  0  0  0  3  0  0  0  0  0  0
   -7.4780   40.0010   19.6740 C   0  0  0  0  0  3  0  0  0  0  0  0
   -7.7950   41.2890   19.2770 C   0  0  0  0  0  3  0  0  0  0  0  0
   -7.2000   42.3580   19.9190 C   0  0  0  0  0  3  0  0  0  0  0  0
   -6.3010   42.1510   20.9430 C   0  0  0  0  0  3  0  0  0  0  0  0
   -3.1790   36.6410   21.8020 C   0  0  0  0  0  0  0  0  0  0  0  0
   -4.4180   36.0880   21.5990 C   0  0  0  0  0  3  0  0  0  0  0  0
   -4.6680   35.2910   20.5100 C   0  0  0  0  0  3  0  0  0  0  0  0
   -3.6670   35.0330   19.6000 C   0  0  0  0  0  3  0  0  0  0  0  0
   -2.4310   35.5980   19.8240 C   0  0  0  0  0  3  0  0  0  0  0  0
   -2.1760   36.4010   20.9170 C   0  0  0  0  0  3  0  0  0  0  0  0
 32 31  1  0
 32 33  2  0
 38 39  2  0
 38 37  1  0
 31 30  2  0
 39 40  1  0
 33 34  1  0
 28 23  1  0
 37 36  2  0
 12 13  1  0
 30 29  1  0
 23 22  1  0
 40 35  2  0
 34 29  2  0
 11  8  1  0
 29 24  1  0
 36 35  1  0
 35  1  1  0
 10  9  1  0
 10  2  2  0
 22 24  1  0
 22 21  2  0
  8  9  1  0
  8  7  1  0
 13  2  1  0
 24 25  1  0
  9  5  2  0
  2  3  1  0
 18 17  1  0
 21  1  1  0
 21 26  1  0
  1  7  1  0
  7  6  2  0
 25 26  1  0
  5  6  1  0
  5  4  1  0
  3  4  2  0
 20 16  1  0
 17 16  1  0
 17 19  2  0
 26 27  2  0
  6 14  1  0
 16 15  1  0
 14 15  1  0
M  RAD  8   1   2   3   2   4   2  10   2  12   2  13   3  14   3  15   3
M  RAD  8  18   2  24   2  25   3  30   2  31   2  32   2  33   2  34   2
M  RAD  5  36   2  37   2  38   2  39   2  40   2
M  END
>  <_TriposChargeType>  (1) 
GASTEIGER

>  <SuCOS_score>  (1) 
0.30245973329233766

>  <Volume_score>  (1) 
0.500608339785422

>  <Feature_score>  (1) 
0.10431112679925342

$$$$
