DOCK.F10.P3s0n/L1014_ligand.pdbt
     RDKit          3D

 24 27  0  0  0  0  0  0  0  0999 V2000
   -0.4250   39.1860   21.0130 C   0  0  0  0  0  2  0  0  0  0  0  0
    1.7540   40.4000   20.4040 C   0  0  0  0  0  1  0  0  0  0  0  0
    2.3150   39.8490   21.6220 C   0  0  0  0  0  0  0  0  0  0  0  0
    3.6680   40.0470   21.9630 C   0  0  0  0  0  3  0  0  0  0  0  0
    4.2180   39.6370   23.1430 C   0  0  0  0  0  3  0  0  0  0  0  0
    3.4230   39.0000   24.0480 C   0  0  0  0  0  3  0  0  0  0  0  0
    2.0850   38.7770   23.7640 C   0  0  0  0  0  0  0  0  0  0  0  0
    1.3030   38.1810   24.7160 C   0  0  0  0  0  3  0  0  0  0  0  0
   -0.0200   38.0000   24.4670 C   0  0  0  0  0  3  0  0  0  0  0  0
   -0.5510   38.3980   23.2980 C   0  0  0  0  0  3  0  0  0  0  0  0
    0.1980   39.0220   22.2550 C   0  0  0  0  0  0  0  0  0  0  0  0
    1.5220   39.1960   22.5470 C   0  0  0  0  0  0  0  0  0  0  0  0
   -1.8980   38.9050   21.2030 N   0  0  0  0  0  0  0  0  0  0  0  0
   -2.8620   39.7620   21.5660 C   0  0  0  0  0  0  0  0  0  0  0  0
   -4.0600   39.0170   21.6910 C   0  0  0  0  0  3  0  0  0  0  0  0
   -3.8030   37.7080   21.4000 C   0  0  0  0  0  0  0  0  0  0  0  0
   -4.5800   36.5480   21.3800 C   0  0  0  0  0  3  0  0  0  0  0  0
   -4.0340   35.3290   21.0650 C   0  0  0  0  0  3  0  0  0  0  0  0
   -2.6950   35.2900   20.7700 C   0  0  0  0  0  3  0  0  0  0  0  0
   -1.9280   36.4440   20.7900 C   0  0  0  0  0  3  0  0  0  0  0  0
   -2.4480   37.6770   21.1020 C   0  0  0  0  0  0  0  0  0  0  0  0
   -2.8000   41.1790   21.8050 C   0  0  0  0  0  0  0  0  0  0  0  0
   -2.0960   41.9010   21.0000 O   0  0  0  0  0  1  0  0  0  0  0  0
   -3.4030   41.8910   22.7980 O   0  0  0  0  0  0  0  0  0  0  0  0
  2  3  1  0
 19 20  1  0
 19 18  2  0
 20 21  2  0
 23 22  1  0
  1 13  1  0
  1 11  1  0
 18 17  1  0
 21 13  1  0
 21 16  1  0
 13 14  1  0
 17 16  2  0
 16 15  1  0
 14 15  2  0
 14 22  1  0
  3  4  2  0
  3 12  1  0
 22 24  2  0
  4  5  1  0
 11 12  2  0
 11 10  1  0
 12  7  1  0
  5  6  2  0
 10  9  2  0
  7  6  1  0
  7  8  2  0
  9  8  1  0
M  RAD  8   1   3   2   2   4   2   5   2   6   2   8   2   9   2  10   2
M  CHG  1  23  -1
M  RAD  5  15   2  17   2  18   2  19   2  20   2
M  END
>  <_TriposChargeType>  (1) 
GASTEIGER

>  <SuCOS_score>  (1) 
0.3520106404219031

>  <Volume_score>  (1) 
0.4028284167495304

>  <Feature_score>  (1) 
0.30119286409427587

$$$$
