DOCK.F10.P3s0n/L1016_ligand.pdbt
     RDKit          3D

 29 32  0  0  0  0  0  0  0  0999 V2000
   -4.4810   39.0640   21.7380 C   0  0  0  0  0  0  0  0  0  0  0  0
   -3.2870   39.8040   21.7530 C   0  0  0  0  0  0  0  0  0  0  0  0
   -2.2760   39.0240   21.4300 N   0  0  0  0  0  4  0  0  0  0  0  0
   -2.8260   37.7380   21.2020 C   0  0  0  0  0  0  0  0  0  0  0  0
   -2.2660   36.5470   20.8420 C   0  0  0  0  0  3  0  0  0  0  0  0
   -3.0060   35.4120   20.6710 C   0  0  0  0  0  3  0  0  0  0  0  0
   -4.3710   35.4670   20.8680 C   0  0  0  0  0  3  0  0  0  0  0  0
   -4.9780   36.6390   21.2300 C   0  0  0  0  0  3  0  0  0  0  0  0
   -4.1760   37.7780   21.3940 C   0  0  0  0  0  0  0  0  0  0  0  0
   -3.2490   41.2240   22.0790 C   0  0  0  0  0  0  0  0  0  0  0  0
   -3.6000   41.6920   23.1800 O   0  0  0  0  0  1  0  0  0  0  0  0
   -2.8000   42.1400   21.1420 O   0  0  0  0  0  0  0  0  0  0  0  0
   -5.8440   39.5490   22.0450 C   0  0  0  0  0  2  0  0  0  0  0  0
   -7.7310   40.9990   19.0000 C   0  0  0  0  0  1  0  0  0  0  0  0
   -6.9370   40.9100   20.2020 N   0  0  0  0  0  0  0  0  0  0  0  0
   -6.4000   42.0970   20.8000 C   0  0  0  0  0  1  0  0  0  0  0  0
   -6.6640   39.6580   20.8050 C   0  0  0  0  0  0  0  0  0  0  0  0
   -7.1100   38.5920   20.3000 O   0  0  0  0  0  0  0  0  0  0  0  0
   -0.8930   39.1860   21.1990 C   0  0  0  0  0  2  0  0  0  0  0  0
    0.0510   38.8450   22.3290 C   0  0  0  0  0  0  0  0  0  0  0  0
   -0.4570   38.2050   23.4300 C   0  0  0  0  0  3  0  0  0  0  0  0
    0.8660   38.1430   24.4970 S   0  0  0  0  0  0  0  0  0  0  0  0
    2.0390   38.9200   23.5410 C   0  0  0  0  0  0  0  0  0  0  0  0
    3.4000   39.2010   23.7320 C   0  0  0  0  0  3  0  0  0  0  0  0
    4.1410   39.8000   22.7440 C   0  0  0  0  0  3  0  0  0  0  0  0
    3.4700   40.0980   21.5880 C   0  0  0  0  0  0  0  0  0  0  0  0
    4.1840   40.6950   20.5950 F   0  0  0  0  0  0  0  0  0  0  0  0
    2.1480   39.8330   21.3880 C   0  0  0  0  0  3  0  0  0  0  0  0
    1.3580   39.2180   22.3900 C   0  0  0  0  0  0  0  0  0  0  0  0
 14 15  1  0
 15 16  1  0
 15 17  1  0
 18 17  2  0
 27 26  1  0
  6  5  2  0
  6  7  1  0
 17 13  1  0
  5  4  1  0
  7  8  2  0
 12 10  2  0
 19  3  1  0
 19 20  1  0
  4  9  2  0
  4  3  1  0
  8  9  1  0
 28 26  1  0
 28 29  2  0
  9  1  1  0
  3  2  1  0
 26 25  2  0
  1  2  2  0
  1 13  1  0
  2 10  1  0
 10 11  1  0
 20 29  1  0
 20 21  2  0
 29 23  1  0
 25 24  1  0
 21 22  1  0
 23 24  2  0
 23 22  1  0
M  RAD  8   5   2   6   2   7   2   8   2  13   3  14   2  16   2  19   3
M  CHG  2   3   1  11  -1
M  RAD  4  21   2  24   2  25   2  28   2
M  END
>  <_TriposChargeType>  (1) 
GASTEIGER

>  <SuCOS_score>  (1) 
0.34217348626835015

>  <Volume_score>  (1) 
0.5159650867307479

>  <Feature_score>  (1) 
0.16838188580595237

$$$$
