DOCK.F40.P5yjm/L1001_ligand.pdbt
     RDKit          3D

 32 35  0  0  0  0  0  0  0  0999 V2000
   -1.1030   36.9980   22.7550 C   0  0  0  0  0  0  0  0  0  0  0  0
   -1.5750   37.1520   21.4430 C   0  0  0  0  0  0  0  0  0  0  0  0
   -1.6180   35.9580   20.8460 N   0  0  0  0  0  4  0  0  0  0  0  0
   -1.1860   35.0510   21.7370 C   0  0  0  0  0  0  0  0  0  0  0  0
   -1.0360   33.6560   21.6180 C   0  0  0  0  0  3  0  0  0  0  0  0
   -0.5770   32.9020   22.6540 C   0  0  0  0  0  3  0  0  0  0  0  0
   -0.2470   33.4940   23.8520 C   0  0  0  0  0  0  0  0  0  0  0  0
    0.2130   32.7840   24.9070 F   0  0  0  0  0  0  0  0  0  0  0  0
   -0.3990   34.8690   23.9540 C   0  0  0  0  0  3  0  0  0  0  0  0
   -0.8660   35.6650   22.9140 C   0  0  0  0  0  0  0  0  0  0  0  0
   -1.9450   38.4390   20.8770 C   0  0  0  0  0  0  0  0  0  0  0  0
   -3.0970   38.8730   20.9990 O   0  0  0  0  0  1  0  0  0  0  0  0
   -1.0010   39.1740   20.2000 O   0  0  0  0  0  0  0  0  0  0  0  0
   -0.9310   38.0900   23.6950 C   0  0  0  0  0  2  0  0  0  0  0  0
    1.4770   38.4290   23.4750 C   0  0  0  0  0  0  0  0  0  0  0  0
    1.4060   38.3520   22.2180 O   0  0  0  0  0  0  0  0  0  0  0  0
    0.3340   38.2900   24.3090 N   0  0  0  0  0  0  0  0  0  0  0  0
    0.5280   38.3960   25.7510 C   0  0  0  0  0  1  0  0  0  0  0  0
    2.7100   38.6550   24.0450 O   0  0  0  0  0  0  0  0  0  0  0  0
    5.0140   39.2020   24.2020 C   0  0  0  0  0  1  0  0  0  0  0  0
    3.7100   39.4850   23.4950 C   0  0  0  0  0  2  0  0  0  0  0  0
   -2.0340   35.6400   19.5130 C   0  0  0  0  0  2  0  0  0  0  0  0
   -3.2320   34.7720   19.4710 C   0  0  0  0  0  0  0  0  0  0  0  0
   -4.2250   34.7800   20.4290 C   0  0  0  0  0  3  0  0  0  0  0  0
   -5.3370   33.9450   20.3470 C   0  0  0  0  0  3  0  0  0  0  0  0
   -5.4190   33.0890   19.2560 C   0  0  0  0  0  3  0  0  0  0  0  0
   -4.4490   33.0470   18.2750 C   0  0  0  0  0  0  0  0  0  0  0  0
   -4.5470   32.1940   17.2020 C   0  0  0  0  0  3  0  0  0  0  0  0
   -3.5630   32.1810   16.2460 C   0  0  0  0  0  3  0  0  0  0  0  0
   -2.4620   33.0000   16.3150 C   0  0  0  0  0  3  0  0  0  0  0  0
   -2.3890   33.8520   17.4100 C   0  0  0  0  0  3  0  0  0  0  0  0
   -3.3480   33.9080   18.4010 C   0  0  0  0  0  0  0  0  0  0  0  0
 29 30  2  0
 29 28  1  0
 30 31  1  0
 28 27  2  0
 31 32  2  0
 27 32  1  0
 27 26  1  0
 32 23  1  0
 26 25  2  0
 23 22  1  0
 23 24  2  0
 22  3  1  0
 13 11  2  0
 25 24  1  0
  3  2  1  0
  3  4  1  0
 11 12  1  0
 11  2  1  0
  2  1  2  0
  5  4  2  0
  5  6  1  0
  4 10  1  0
 16 15  2  0
  6  7  2  0
  1 10  1  0
  1 14  1  0
 10  9  2  0
 15 19  1  0
 15 17  1  0
 21 19  1  0
 21 20  1  0
 14 17  1  0
  7  9  1  0
  7  8  1  0
 17 18  1  0
M  RAD  8   5   2   6   2   9   2  14   3  18   2  20   2  21   3  22   3
M  CHG  2   3   1  12  -1
M  RAD  7  24   2  25   2  26   2  28   2  29   2  30   2  31   2
M  END
>  <_TriposChargeType>  (1) 
GASTEIGER

>  <SuCOS_score>  (1) 
0.17571166412403896

>  <Volume_score>  (1) 
0.3431156222418358

>  <Feature_score>  (1) 
0.00830770600624214

$$$$
