DOCK.F40.P5yjm/L1008_ligand.pdbt
     RDKit          3D

 32 36  0  0  0  0  0  0  0  0999 V2000
   -2.2540   38.8210   23.0930 C   0  0  0  0  0  3  0  0  0  0  0  0
    5.1990   39.4000   23.9080 C   0  0  0  0  0  1  0  0  0  0  0  0
    3.9020   39.5150   23.1730 C   0  0  0  0  0  0  0  0  0  0  0  0
    3.9180   39.9860   21.8790 C   0  0  0  0  0  3  0  0  0  0  0  0
    2.7010   40.0800   21.2260 C   0  0  0  0  0  3  0  0  0  0  0  0
    1.5220   39.7110   21.8650 C   0  0  0  0  0  0  0  0  0  0  0  0
   -0.1180   39.6900   21.3960 S   0  0  0  0  0  0  0  0  0  0  0  0
   -0.8160   39.0890   22.8270 C   0  0  0  0  0  0  0  0  0  0  0  0
    0.2710   38.9190   23.6460 C   0  0  0  0  0  0  0  0  0  0  0  0
    0.0390   38.3800   25.0570 C   0  0  0  0  0  1  0  0  0  0  0  0
    1.4790   39.2400   23.1500 C   0  0  0  0  0  0  0  0  0  0  0  0
    2.7320   39.1580   23.7790 C   0  0  0  0  0  3  0  0  0  0  0  0
   -3.1510   39.8930   22.5800 C   0  0  0  0  0  0  0  0  0  0  0  0
   -3.0580   41.0490   22.0070 C   0  0  0  0  0  0  0  0  0  0  0  0
   -1.9650   41.8330   21.6000 O   0  0  0  0  0  0  0  0  0  0  0  0
   -4.4860   41.2580   21.9300 C   0  0  1  0  0  0  0  0  0  0  0  0
   -5.0990   41.2000   20.5430 C   0  0  0  0  0  1  0  0  0  0  0  0
   -4.5870   39.9640   22.5730 C   0  0  0  0  0  0  0  0  0  0  0  0
   -5.5620   39.2250   22.9600 O   0  0  0  0  0  0  0  0  0  0  0  0
   -1.7060   41.7700   20.6240 H   0  0  0  0  0  0  0  0  0  0  0  0
   -5.0380   42.3350   22.7840 C   0  0  0  0  0  0  0  0  0  0  0  0
   -5.4010   42.1300   24.0930 C   0  0  0  0  0  3  0  0  0  0  0  0
   -5.9190   43.1420   24.8850 C   0  0  0  0  0  3  0  0  0  0  0  0
   -6.0780   44.3910   24.3560 C   0  0  0  0  0  3  0  0  0  0  0  0
   -5.7190   44.6110   23.0440 C   0  0  0  0  0  3  0  0  0  0  0  0
   -5.2000   43.5930   22.2530 C   0  0  0  0  0  3  0  0  0  0  0  0
   -2.6100   37.5660   22.3770 C   0  0  0  0  0  0  0  0  0  0  0  0
   -2.5990   37.4810   21.0010 C   0  0  0  0  0  3  0  0  0  0  0  0
   -2.9350   36.3100   20.4020 C   0  0  0  0  0  3  0  0  0  0  0  0
   -3.2820   35.2160   21.1270 C   0  0  0  0  0  3  0  0  0  0  0  0
   -3.2910   35.3080   22.5200 C   0  0  0  0  0  3  0  0  0  0  0  0
   -2.9570   36.4790   23.1600 C   0  0  0  0  0  3  0  0  0  0  0  0
 29 28  2  0
 29 30  1  0
 16 17  1  6
 20 15  1  0
 28 27  1  0
 30 31  2  0
  5  6  2  0
  5  4  1  0
  7  6  1  0
  7  8  1  0
 15 14  1  0
  6 11  1  0
  4  3  2  0
 16 14  1  0
 16 18  1  0
 16 21  1  0
 14 13  2  0
 26 21  1  0
 26 25  2  0
 27  1  1  0
 27 32  2  0
 31 32  1  0
 18 13  1  0
 18 19  2  0
 13  1  1  0
 21 22  2  0
  8  1  1  0
  8  9  2  0
 25 24  1  0
 11  9  1  0
 11 12  2  0
  3 12  1  0
  3  2  1  0
  9 10  1  0
 22 23  1  0
 24 23  2  0
M  RAD  8   1   2   2   2   4   2   5   2  10   2  12   2  17   2  22   2
M  RAD  8  23   2  24   2  25   2  26   2  28   2  29   2  30   2  31   2
M  RAD  1  32   2
M  END
>  <_TriposChargeType>  (1) 
GASTEIGER

>  <SuCOS_score>  (1) 
0.446151589127647

>  <Volume_score>  (1) 
0.5559606673295768

>  <Feature_score>  (1) 
0.3363425109257172

$$$$
