DOCK.F40.P5yjm/L1003_ligand.pdbt
     RDKit          3D

 32 35  0  0  0  0  0  0  0  0999 V2000
   -1.5190   36.2320   23.6370 N   0  0  0  0  0  0  0  0  0  0  0  0
   -1.5920   35.5400   24.4450 H   0  0  0  0  0  0  0  0  0  0  0  0
   -1.7070   35.7190   22.3550 C   0  0  0  0  0  0  0  0  0  0  0  0
   -2.1790   36.4820   21.2980 C   0  0  0  0  0  3  0  0  0  0  0  0
   -2.3670   35.9470   20.0340 C   0  0  0  0  0  3  0  0  0  0  0  0
   -2.0880   34.6230   19.7820 C   0  0  0  0  0  0  0  0  0  0  0  0
   -1.6200   33.8520   20.8160 C   0  0  0  0  0  3  0  0  0  0  0  0
   -1.4340   34.3950   22.0840 C   0  0  0  0  0  0  0  0  0  0  0  0
   -2.2650   34.0040   18.4760 C   0  0  0  0  0  0  0  0  0  0  0  0
   -3.5120   33.6000   18.0280 C   0  0  0  0  0  3  0  0  0  0  0  0
   -3.7140   33.0110   16.7980 C   0  0  0  0  0  3  0  0  0  0  0  0
   -2.6390   32.8180   15.9890 N   0  0  0  0  0  0  0  0  0  0  0  0
   -1.4230   33.2000   16.4000 C   0  0  0  0  0  3  0  0  0  0  0  0
   -1.2000   33.7910   17.6250 C   0  0  0  0  0  3  0  0  0  0  0  0
   -0.9360   33.4790   23.1220 C   0  0  2  0  0  0  0  0  0  0  0  0
   -1.6890   33.4680   24.2630 F   0  0  0  0  0  0  0  0  0  0  0  0
    0.4000   33.8080   23.3990 F   0  0  0  0  0  0  0  0  0  0  0  0
   -0.8900   32.1780   22.6620 F   0  0  0  0  0  0  0  0  0  0  0  0
   -1.1840   37.8480   24.0790 S   0  0  1  0  0  6  0  0  0  0  0  0
   -2.2510   38.7820   23.5560 O   0  0  0  0  0  0  0  0  0  0  0  0
   -1.2470   38.0090   25.5940 O   0  0  0  0  0  0  0  0  0  0  0  0
   -0.0280   38.9830   21.1900 C   0  0  0  0  0  1  0  0  0  0  0  0
    0.8980   38.8400   22.3890 C   0  0  0  0  0  0  0  0  0  0  0  0
    0.3970   38.3810   23.5630 C   0  0  0  0  0  0  0  0  0  0  0  0
    1.7680   38.4000   24.5990 S   0  0  0  0  0  0  0  0  0  0  0  0
    2.9280   38.9910   23.5040 C   0  0  0  0  0  0  0  0  0  0  0  0
    4.2900   39.2720   23.6300 C   0  0  0  0  0  3  0  0  0  0  0  0
    5.0110   39.7520   22.5580 C   0  0  0  0  0  3  0  0  0  0  0  0
    4.2930   39.9240   21.3930 C   0  0  0  0  0  0  0  0  0  0  0  0
    5.0000   40.4010   20.3240 F   0  0  0  0  0  0  0  0  0  0  0  0
    2.9600   39.6510   21.2600 C   0  0  0  0  0  3  0  0  0  0  0  0
    2.2190   39.1600   22.3530 C   0  0  0  0  0  0  0  0  0  0  0  0
 12 13  2  0
 12 11  1  0
 13 14  1  0
 11 10  2  0
 14  9  2  0
 10  9  1  0
  9  6  1  0
  6  5  1  0
  6  7  2  0
  5  4  2  0
 30 29  1  0
  7  8  1  0
 22 23  1  0
 31 29  1  0
 31 32  2  0
  4  3  1  0
 29 28  2  0
  8  3  2  0
  8 15  1  0
 32 23  1  0
 32 26  1  0
  3  1  1  0
 23 24  2  0
 28 27  1  0
 15 18  1  6
 15 17  1  0
 15 16  1  0
 26 27  2  0
 26 25  1  0
 20 19  2  0
 24 19  1  0
 24 25  1  0
 19  1  1  1
  1  2  1  0
 19 21  2  0
M  RAD  8   4   2   5   2   7   2  10   2  11   2  13   2  14   2  22   2
M  RAD  3  27   2  28   2  31   2
M  END
>  <_TriposChargeType>  (1) 
GASTEIGER

>  <SuCOS_score>  (1) 
0.2743298471882071

>  <Volume_score>  (1) 
0.3876647104418115

>  <Feature_score>  (1) 
0.1609949839346027

$$$$
