DOCK.F40.P5yjm/L1016_ligand.pdbt
     RDKit          3D

 29 32  0  0  0  0  0  0  0  0999 V2000
   -2.7280   35.5920   21.1170 C   0  0  0  0  0  0  0  0  0  0  0  0
   -2.7570   36.8120   21.8110 C   0  0  0  0  0  0  0  0  0  0  0  0
   -1.9200   36.7670   22.8260 N   0  0  0  0  0  4  0  0  0  0  0  0
   -1.3320   35.4780   22.7960 C   0  0  0  0  0  0  0  0  0  0  0  0
   -0.4040   34.8690   23.5890 C   0  0  0  0  0  3  0  0  0  0  0  0
    0.0290   33.5940   23.3650 C   0  0  0  0  0  3  0  0  0  0  0  0
   -0.4890   32.8900   22.2970 C   0  0  0  0  0  3  0  0  0  0  0  0
   -1.4230   33.4580   21.4720 C   0  0  0  0  0  3  0  0  0  0  0  0
   -1.8360   34.7700   21.7440 C   0  0  0  0  0  0  0  0  0  0  0  0
   -3.6060   37.9250   21.4050 C   0  0  0  0  0  0  0  0  0  0  0  0
   -4.8520   37.8810   21.4010 O   0  0  0  0  0  1  0  0  0  0  0  0
   -3.0370   39.1210   20.9980 O   0  0  0  0  0  0  0  0  0  0  0  0
   -3.5160   35.2180   19.9220 C   0  0  0  0  0  2  0  0  0  0  0  0
   -2.1440   33.4000   16.8000 C   0  0  0  0  0  1  0  0  0  0  0  0
   -3.0180   33.8000   17.8770 N   0  0  0  0  0  0  0  0  0  0  0  0
   -4.3130   33.1990   18.0140 C   0  0  0  0  0  1  0  0  0  0  0  0
   -2.6240   34.7930   18.8060 C   0  0  0  0  0  0  0  0  0  0  0  0
   -1.4970   35.3500   18.7090 O   0  0  0  0  0  0  0  0  0  0  0  0
   -1.4550   37.6660   23.8090 C   0  0  0  0  0  2  0  0  0  0  0  0
    0.0160   38.0180   23.7980 C   0  0  0  0  0  0  0  0  0  0  0  0
    0.7580   37.7440   24.9180 C   0  0  0  0  0  3  0  0  0  0  0  0
    2.2800   38.4120   24.5560 S   0  0  0  0  0  0  0  0  0  0  0  0
    1.9610   39.0230   23.0010 C   0  0  0  0  0  0  0  0  0  0  0  0
    2.7540   39.6720   22.0440 C   0  0  0  0  0  3  0  0  0  0  0  0
    2.2410   40.0090   20.8150 C   0  0  0  0  0  3  0  0  0  0  0  0
    0.9310   39.6750   20.6000 C   0  0  0  0  0  0  0  0  0  0  0  0
    0.4000   40.0000   19.3900 F   0  0  0  0  0  0  0  0  0  0  0  0
    0.1470   39.0440   21.5210 C   0  0  0  0  0  3  0  0  0  0  0  0
    0.6480   38.6870   22.7960 C   0  0  0  0  0  0  0  0  0  0  0  0
 14 15  1  0
 15 16  1  0
 15 17  1  0
 18 17  2  0
 17 13  1  0
 27 26  1  0
 13  1  1  0
 26 25  2  0
 26 28  1  0
 25 24  1  0
 12 10  2  0
  1  9  1  0
  1  2  2  0
 11 10  1  0
 10  2  1  0
  8  9  2  0
  8  7  1  0
 28 29  2  0
  9  4  1  0
  2  3  1  0
 24 23  2  0
  7  6  2  0
  4  3  1  0
  4  5  2  0
 29 23  1  0
 29 20  1  0
  3 19  1  0
 23 22  1  0
  6  5  1  0
 20 19  1  0
 20 21  2  0
 22 21  1  0
M  RAD  8   5   2   6   2   7   2   8   2  13   3  14   2  16   2  19   3
M  CHG  2   3   1  11  -1
M  RAD  4  21   2  24   2  25   2  28   2
M  END
>  <_TriposChargeType>  (1) 
GASTEIGER

>  <SuCOS_score>  (1) 
0.21043923241593335

>  <Volume_score>  (1) 
0.36643759698514744

>  <Feature_score>  (1) 
0.054440867846719254

$$$$
