DOCK.F40.P5yjm/L1017_ligand.pdbt
     RDKit          3D

 31 34  0  0  0  0  0  0  0  0999 V2000
   -1.2780   36.7710   22.8290 C   0  0  0  0  0  0  0  0  0  0  0  0
   -1.6270   36.9440   21.5110 C   0  0  0  0  0  0  0  0  0  0  0  0
   -1.5970   35.8020   20.8340 N   0  0  0  0  0  4  0  0  0  0  0  0
   -1.2240   34.8440   21.6830 C   0  0  0  0  0  0  0  0  0  0  0  0
   -1.0000   33.4730   21.5800 C   0  0  0  0  0  3  0  0  0  0  0  0
   -0.6050   32.6590   22.5990 C   0  0  0  0  0  3  0  0  0  0  0  0
   -0.3990   33.2340   23.8600 C   0  0  0  0  0  0  0  0  0  0  0  0
    0.0120   32.4740   24.8810 F   0  0  0  0  0  0  0  0  0  0  0  0
   -0.6170   34.5920   24.0050 C   0  0  0  0  0  3  0  0  0  0  0  0
   -1.0180   35.4010   22.9640 C   0  0  0  0  0  0  0  0  0  0  0  0
   -2.0420   38.2950   20.9990 C   0  0  0  0  0  0  0  0  0  0  0  0
   -3.2410   38.6210   21.1100 O   0  0  0  0  0  1  0  0  0  0  0  0
   -1.1980   39.1930   20.4000 O   0  0  0  0  0  0  0  0  0  0  0  0
   -0.8770   37.7670   23.8080 C   0  0  0  0  0  2  0  0  0  0  0  0
    0.4210   37.7600   24.3780 N   0  0  0  0  0  0  0  0  0  0  0  0
    0.9560   36.9360   24.5480 H   0  0  0  0  0  0  0  0  0  0  0  0
    2.9790   39.0000   24.0540 C   0  0  0  0  0  1  0  0  0  0  0  0
    1.3200   38.9400   23.4460 S   0  0  2  0  0  6  0  0  0  0  0  0
    0.6770   40.2460   23.4240 O   0  0  0  0  0  0  0  0  0  0  0  0
    1.4000   38.4000   21.9950 O   0  0  0  0  0  0  0  0  0  0  0  0
   -2.0410   35.6000   19.4790 C   0  0  0  0  0  2  0  0  0  0  0  0
   -3.2170   34.7330   19.3720 C   0  0  0  0  0  0  0  0  0  0  0  0
   -4.2180   34.7050   20.2750 C   0  0  0  0  0  3  0  0  0  0  0  0
   -5.2870   33.8550   20.1550 C   0  0  0  0  0  3  0  0  0  0  0  0
   -5.3730   32.9830   19.0850 C   0  0  0  0  0  3  0  0  0  0  0  0
   -4.3270   33.0110   18.1450 C   0  0  0  0  0  0  0  0  0  0  0  0
   -4.4010   32.1530   17.0690 C   0  0  0  0  0  3  0  0  0  0  0  0
   -3.4000   32.1620   16.1290 C   0  0  0  0  0  3  0  0  0  0  0  0
   -2.3280   33.0070   16.2310 C   0  0  0  0  0  3  0  0  0  0  0  0
   -2.2900   33.8410   17.2950 C   0  0  0  0  0  3  0  0  0  0  0  0
   -3.2890   33.8710   18.3020 C   0  0  0  0  0  0  0  0  0  0  0  0
 28 29  2  0
 28 27  1  0
 29 30  1  0
 27 26  2  0
 30 31  2  0
 26 31  1  0
 26 25  1  0
 31 22  1  0
 25 24  2  0
 22 21  1  0
 22 23  2  0
 21  3  1  0
 24 23  1  0
 13 11  2  0
  3  2  1  0
  3  4  1  0
 11 12  1  0
 11  2  1  0
  2  1  2  0
  5  4  2  0
  5  6  1  0
  4 10  1  0
 20 18  2  0
  6  7  2  0
  1 10  1  0
  1 14  1  0
 10  9  2  0
 19 18  2  0
 18 17  1  1
 18 15  1  0
 14 15  1  0
  7  9  1  0
  7  8  1  0
 15 16  1  0
M  RAD  8   5   2   6   2   9   2  14   3  17   2  21   3  23   2  24   2
M  CHG  2   3   1  12  -1
M  RAD  5  25   2  27   2  28   2  29   2  30   2
M  END
>  <_TriposChargeType>  (1) 
GASTEIGER

>  <SuCOS_score>  (1) 
0.164960663775205

>  <Volume_score>  (1) 
0.3195501157790275

>  <Feature_score>  (1) 
0.010371211771382515

$$$$
