DOCK.F36.P4k69/L1003_ligand.pdbt
     RDKit          3D

 32 35  0  0  0  0  0  0  0  0999 V2000
   -3.0160   37.7770   22.4450 N   0  0  0  0  0  0  0  0  0  0  0  0
   -3.9420   37.8690   21.9230 H   0  0  0  0  0  0  0  0  0  0  0  0
   -2.4670   36.4980   22.5210 C   0  0  0  0  0  0  0  0  0  0  0  0
   -2.1520   35.8820   23.7220 C   0  0  0  0  0  3  0  0  0  0  0  0
   -1.5980   34.6140   23.7730 C   0  0  0  0  0  3  0  0  0  0  0  0
   -1.3380   33.9130   22.6170 C   0  0  0  0  0  0  0  0  0  0  0  0
   -1.6430   34.5070   21.4180 C   0  0  0  0  0  3  0  0  0  0  0  0
   -2.1990   35.7820   21.3740 C   0  0  0  0  0  0  0  0  0  0  0  0
   -0.7580   32.5790   22.6060 C   0  0  0  0  0  0  0  0  0  0  0  0
    0.5990   32.3750   22.8010 C   0  0  0  0  0  3  0  0  0  0  0  0
    1.1800   31.1250   22.7950 C   0  0  0  0  0  3  0  0  0  0  0  0
    0.3840   30.0430   22.5900 N   0  0  0  0  0  0  0  0  0  0  0  0
   -0.9300   30.2140   22.3980 C   0  0  0  0  0  3  0  0  0  0  0  0
   -1.5310   31.4540   22.4000 C   0  0  0  0  0  3  0  0  0  0  0  0
   -2.4800   36.3280   20.0360 C   0  0  2  0  0  0  0  0  0  0  0  0
   -1.9400   35.6000   19.0130 F   0  0  0  0  0  0  0  0  0  0  0  0
   -2.0380   37.6590   20.0000 F   0  0  0  0  0  0  0  0  0  0  0  0
   -3.8380   36.4010   19.8000 F   0  0  0  0  0  0  0  0  0  0  0  0
   -2.3840   39.2280   23.0870 S   0  0  1  0  0  6  0  0  0  0  0  0
   -3.1570   40.4240   22.5790 O   0  0  0  0  0  0  0  0  0  0  0  0
   -2.5740   39.2670   24.6000 O   0  0  0  0  0  0  0  0  0  0  0  0
    0.3310   38.4000   24.7940 C   0  0  0  0  0  1  0  0  0  0  0  0
    0.4490   39.1060   23.4520 C   0  0  0  0  0  0  0  0  0  0  0  0
   -0.6780   39.4270   22.7690 C   0  0  0  0  0  0  0  0  0  0  0  0
   -0.0670   40.1760   21.3490 S   0  0  0  0  0  0  0  0  0  0  0  0
    1.5990   40.0560   21.6730 C   0  0  0  0  0  0  0  0  0  0  0  0
    2.7310   40.4550   20.9610 C   0  0  0  0  0  3  0  0  0  0  0  0
    3.9940   40.2310   21.4660 C   0  0  0  0  0  3  0  0  0  0  0  0
    4.0370   39.6000   22.6920 C   0  0  0  0  0  0  0  0  0  0  0  0
    5.2850   39.3730   23.2000 F   0  0  0  0  0  0  0  0  0  0  0  0
    2.9330   39.2060   23.3960 C   0  0  0  0  0  3  0  0  0  0  0  0
    1.6400   39.4330   22.8830 C   0  0  0  0  0  0  0  0  0  0  0  0
 15 16  1  6
 18 15  1  0
 17 15  1  0
 15  8  1  0
 27 28  2  0
 27 26  1  0
 25 26  1  0
 25 24  1  0
  8  7  2  0
  8  3  1  0
  7  6  1  0
 28 29  1  0
 26 32  2  0
  2  1  1  0
 13 14  2  0
 13 12  1  0
 14  9  1  0
  1  3  1  0
 19  1  1  6
  3  4  2  0
 20 19  2  0
 12 11  2  0
  9  6  1  0
  9 10  2  0
  6  5  2  0
 29 30  1  0
 29 31  2  0
 24 19  1  0
 24 23  2  0
 11 10  1  0
 32 31  1  0
 32 23  1  0
 19 21  2  0
 23 22  1  0
  4  5  1  0
M  RAD  8   4   2   5   2   7   2  10   2  11   2  13   2  14   2  22   2
M  RAD  3  27   2  28   2  31   2
M  END
>  <_TriposChargeType>  (1) 
GASTEIGER

>  <SuCOS_score>  (1) 
0.30418686096827063

>  <Volume_score>  (1) 
0.38651188501934775

>  <Feature_score>  (1) 
0.2218618369171935

$$$$
