DOCK.F36.P4k69/L1007_ligand.pdbt
     RDKit          3D

 31 35  0  0  0  0  0  0  0  0999 V2000
   -1.9650   38.3550   23.3410 C   0  0  0  0  0  3  0  0  0  0  0  0
   -0.5550   38.6970   23.1860 C   0  0  0  0  0  0  0  0  0  0  0  0
    0.2440   38.6010   24.3400 C   0  0  0  0  0  3  0  0  0  0  0  0
    1.5820   38.8910   24.3520 C   0  0  0  0  0  3  0  0  0  0  0  0
    2.1850   39.2960   23.1830 C   0  0  0  0  0  0  0  0  0  0  0  0
    3.5450   39.5950   23.1770 C   0  0  0  0  0  3  0  0  0  0  0  0
    4.1400   39.9990   22.0090 C   0  0  0  0  0  3  0  0  0  0  0  0
    3.3610   40.0940   20.8790 C   0  0  0  0  0  3  0  0  0  0  0  0
    2.0220   39.8020   20.8780 C   0  0  0  0  0  3  0  0  0  0  0  0
    1.3990   39.3910   22.0490 C   0  0  0  0  0  0  0  0  0  0  0  0
    0.0520   39.0980   22.0400 C   0  0  0  0  0  3  0  0  0  0  0  0
   -3.8620   42.2110   22.0400 C   0  0  0  0  0  1  0  0  0  0  0  0
   -4.2100   40.7140   22.0160 C   0  0  2  0  0  0  0  0  0  0  0  0
   -4.0470   40.1080   23.3090 C   0  0  0  0  0  0  0  0  0  0  0  0
   -4.6470   40.2130   24.3970 O   0  0  0  0  0  0  0  0  0  0  0  0
   -2.9310   39.3640   22.8070 C   0  0  0  0  0  0  0  0  0  0  0  0
   -3.0780   39.9170   21.6240 C   0  0  0  0  0  0  0  0  0  0  0  0
   -2.4010   39.8000   20.3990 O   0  0  0  0  0  0  0  0  0  0  0  0
   -1.4490   40.1480   20.3780 H   0  0  0  0  0  0  0  0  0  0  0  0
   -5.4850   40.4660   21.3010 C   0  0  0  0  0  0  0  0  0  0  0  0
   -6.1020   41.5340   20.6910 C   0  0  0  0  0  3  0  0  0  0  0  0
   -7.2940   41.3970   20.0020 C   0  0  0  0  0  3  0  0  0  0  0  0
   -7.9000   40.1690   19.9110 C   0  0  0  0  0  3  0  0  0  0  0  0
   -7.2780   39.1010   20.5250 C   0  0  0  0  0  3  0  0  0  0  0  0
   -6.0860   39.2480   21.2120 C   0  0  0  0  0  3  0  0  0  0  0  0
   -2.2020   36.9840   22.8590 C   0  0  0  0  0  0  0  0  0  0  0  0
   -1.1940   36.0450   22.8520 C   0  0  0  0  0  3  0  0  0  0  0  0
   -1.3670   34.7640   22.3990 C   0  0  0  0  0  3  0  0  0  0  0  0
   -2.5980   34.3830   21.9280 C   0  0  0  0  0  3  0  0  0  0  0  0
   -3.6180   35.3130   21.9300 C   0  0  0  0  0  3  0  0  0  0  0  0
   -3.4470   36.6090   22.3860 C   0  0  0  0  0  3  0  0  0  0  0  0
 23 22  1  0
 23 24  2  0
 22 21  2  0
 19 18  1  0
 18 17  1  0
 24 25  1  0
 21 20  1  0
  9  8  2  0
  9 10  1  0
  8  7  1  0
 25 20  2  0
 20 13  1  0
 17 13  1  0
 17 16  2  0
 29 30  2  0
 29 28  1  0
 30 31  1  0
  7  6  2  0
 13 12  1  1
 13 14  1  0
 11 10  2  0
 11  2  1  0
 10  5  1  0
 31 26  2  0
 28 27  2  0
 16 14  1  0
 16  1  1  0
 27 26  1  0
 26  1  1  0
  6  5  1  0
  5  4  2  0
  2  1  1  0
  2  3  2  0
 14 15  2  0
  3  4  1  0
M  RAD  8   1   2   3   2   4   2   6   2   7   2   8   2   9   2  11   2
M  RAD  8  12   2  21   2  22   2  23   2  24   2  25   2  27   2  28   2
M  RAD  3  29   2  30   2  31   2
M  END
>  <_TriposChargeType>  (1) 
GASTEIGER

>  <SuCOS_score>  (1) 
0.2847641460946538

>  <Volume_score>  (1) 
0.44691194343166496

>  <Feature_score>  (1) 
0.12261634875764264

$$$$
