DOCK.F36.P4k69/L1008_ligand.pdbt
     RDKit          3D

 32 36  0  0  0  0  0  0  0  0999 V2000
   -2.3040   38.9320   22.5810 C   0  0  0  0  0  3  0  0  0  0  0  0
    5.1310   39.4300   23.5940 C   0  0  0  0  0  1  0  0  0  0  0  0
    3.8480   39.6130   22.8470 C   0  0  0  0  0  0  0  0  0  0  0  0
    3.8890   40.2010   21.6030 C   0  0  0  0  0  3  0  0  0  0  0  0
    2.6850   40.3560   20.9380 C   0  0  0  0  0  3  0  0  0  0  0  0
    1.4940   39.9290   21.5170 C   0  0  0  0  0  0  0  0  0  0  0  0
   -0.1360   39.9530   21.0150 S   0  0  0  0  0  0  0  0  0  0  0  0
   -0.8620   39.2230   22.3700 C   0  0  0  0  0  0  0  0  0  0  0  0
    0.2100   38.9770   23.1920 C   0  0  0  0  0  0  0  0  0  0  0  0
   -0.0500   38.3100   24.5420 C   0  0  0  0  0  1  0  0  0  0  0  0
    1.4260   39.3420   22.7510 C   0  0  0  0  0  0  0  0  0  0  0  0
    2.6670   39.2010   23.3940 C   0  0  0  0  0  3  0  0  0  0  0  0
   -3.1800   40.1070   22.3220 C   0  0  0  0  0  0  0  0  0  0  0  0
   -3.0960   41.2870   21.7960 C   0  0  0  0  0  0  0  0  0  0  0  0
   -2.0410   42.0000   21.2020 O   0  0  0  0  0  0  0  0  0  0  0  0
   -4.4820   41.6200   22.0360 C   0  0  1  0  0  0  0  0  0  0  0  0
   -5.3730   41.7070   20.8110 C   0  0  0  0  0  1  0  0  0  0  0  0
   -4.5720   40.3010   22.6260 C   0  0  0  0  0  0  0  0  0  0  0  0
   -5.5120   39.6240   23.1780 O   0  0  0  0  0  0  0  0  0  0  0  0
   -1.9990   41.9780   20.1910 H   0  0  0  0  0  0  0  0  0  0  0  0
   -4.7360   42.6830   23.0370 C   0  0  0  0  0  0  0  0  0  0  0  0
   -4.7230   42.4440   24.3900 C   0  0  0  0  0  3  0  0  0  0  0  0
   -4.9640   43.4420   25.3200 C   0  0  0  0  0  3  0  0  0  0  0  0
   -5.2250   44.7110   24.8880 C   0  0  0  0  0  3  0  0  0  0  0  0
   -5.2420   44.9650   23.5330 C   0  0  0  0  0  3  0  0  0  0  0  0
   -5.0000   43.9610   22.6040 C   0  0  0  0  0  3  0  0  0  0  0  0
   -2.6890   37.8710   21.6110 C   0  0  0  0  0  0  0  0  0  0  0  0
   -3.9950   37.4590   21.4590 C   0  0  0  0  0  3  0  0  0  0  0  0
   -4.2870   36.4850   20.5590 C   0  0  0  0  0  3  0  0  0  0  0  0
   -3.3210   35.9040   19.8030 C   0  0  0  0  0  3  0  0  0  0  0  0
   -1.9990   36.3260   19.9620 C   0  0  0  0  0  3  0  0  0  0  0  0
   -1.6680   37.3100   20.8640 C   0  0  0  0  0  3  0  0  0  0  0  0
 30 31  2  0
 30 29  1  0
 31 32  1  0
 20 15  1  0
 29 28  2  0
 16 17  1  6
 32 27  2  0
  5  6  2  0
  5  4  1  0
  7  6  1  0
  7  8  1  0
 15 14  1  0
 28 27  1  0
  6 11  1  0
  4  3  2  0
 27  1  1  0
 14 16  1  0
 14 13  2  0
 16 18  1  0
 16 21  1  0
 13  1  1  0
 13 18  1  0
  8  1  1  0
  8  9  2  0
 26 21  1  0
 26 25  2  0
 18 19  2  0
 11  9  1  0
 11 12  2  0
  3 12  1  0
  3  2  1  0
 21 22  2  0
  9 10  1  0
 25 24  1  0
 22 23  1  0
 24 23  2  0
M  RAD  8   1   2   2   2   4   2   5   2  10   2  12   2  17   2  22   2
M  RAD  8  23   2  24   2  25   2  26   2  28   2  29   2  30   2  31   2
M  RAD  1  32   2
M  END
>  <_TriposChargeType>  (1) 
GASTEIGER

>  <SuCOS_score>  (1) 
0.4205594481132685

>  <Volume_score>  (1) 
0.556402607446691

>  <Feature_score>  (1) 
0.28471628877984606

$$$$
