DOCK.F36.P4k69/L1005_ligand.pdbt
     RDKit          3D

 31 34  0  0  0  0  0  0  0  0999 V2000
   -4.2060   39.0030   21.3560 C   0  0  0  0  0  0  0  0  0  0  0  0
   -3.0610   39.8260   21.4330 C   0  0  0  0  0  0  0  0  0  0  0  0
   -1.9880   39.1470   21.0500 N   0  0  0  0  0  4  0  0  0  0  0  0
   -2.3970   37.8610   20.7150 C   0  0  0  0  0  0  0  0  0  0  0  0
   -1.6080   36.8110   20.2960 C   0  0  0  0  0  3  0  0  0  0  0  0
   -2.2450   35.5860   20.0540 C   0  0  0  0  0  3  0  0  0  0  0  0
   -3.6020   35.4750   20.2370 C   0  0  0  0  0  0  0  0  0  0  0  0
   -4.2430   34.2800   20.0000 F   0  0  0  0  0  0  0  0  0  0  0  0
   -4.3530   36.5580   20.6590 C   0  0  0  0  0  3  0  0  0  0  0  0
   -3.7610   37.7850   20.9080 C   0  0  0  0  0  0  0  0  0  0  0  0
   -3.1660   41.2040   21.9140 C   0  0  0  0  0  0  0  0  0  0  0  0
   -2.8000   42.2000   21.2000 O   0  0  0  0  0  1  0  0  0  0  0  0
   -3.6580   41.5600   23.1490 O   0  0  0  0  0  0  0  0  0  0  0  0
   -5.5580   39.4330   21.7260 C   0  0  0  0  0  2  0  0  0  0  0  0
   -6.8060   41.4140   20.7990 C   0  0  0  0  0  0  0  0  0  0  0  0
   -6.4380   42.1110   21.7940 O   0  0  0  0  0  0  0  0  0  0  0  0
   -6.3720   40.0630   20.7520 N   0  0  0  0  0  0  0  0  0  0  0  0
   -6.7120   39.5240   19.8870 H   0  0  0  0  0  0  0  0  0  0  0  0
   -8.2180   41.1980   18.8000 C   0  0  0  0  0  1  0  0  0  0  0  0
   -7.6040   41.9730   19.8050 O   0  0  0  0  0  0  0  0  0  0  0  0
   -0.5980   39.5660   21.0100 C   0  0  0  0  0  2  0  0  0  0  0  0
    0.0750   39.2980   22.2660 C   0  0  0  0  0  0  0  0  0  0  0  0
   -0.6250   38.7920   23.3510 C   0  0  0  0  0  3  0  0  0  0  0  0
   -0.0550   38.4080   24.5440 C   0  0  0  0  0  3  0  0  0  0  0  0
    1.3130   38.5480   24.6430 C   0  0  0  0  0  3  0  0  0  0  0  0
    2.0510   39.0410   23.6150 C   0  0  0  0  0  0  0  0  0  0  0  0
    3.3960   39.2000   23.8000 C   0  0  0  0  0  3  0  0  0  0  0  0
    4.1940   39.7470   22.8020 C   0  0  0  0  0  3  0  0  0  0  0  0
    3.5820   40.1280   21.6120 C   0  0  0  0  0  3  0  0  0  0  0  0
    2.2270   39.9690   21.4180 C   0  0  0  0  0  3  0  0  0  0  0  0
    1.4420   39.4260   22.4040 C   0  0  0  0  0  0  0  0  0  0  0  0
 19 20  1  0
 20 15  1  0
 18 17  1  0
  8  7  1  0
  6  7  2  0
  6  5  1  0
  7  9  1  0
  5  4  2  0
  9 10  2  0
  4 10  1  0
  4  3  1  0
 17 15  1  0
 17 14  1  0
 15 16  2  0
 10  1  1  0
 21  3  1  0
 21 22  1  0
  3  2  1  0
 12 11  1  0
  1  2  2  0
  1 14  1  0
 30 29  1  0
 30 31  2  0
  2 11  1  0
 29 28  2  0
 11 13  2  0
 22 31  1  0
 22 23  2  0
 31 26  1  0
 28 27  1  0
 23 24  1  0
 26 27  2  0
 26 25  1  0
 24 25  2  0
M  RAD  8   5   2   6   2   9   2  14   3  19   2  21   3  23   2  24   2
M  CHG  2   3   1  12  -1
M  RAD  5  25   2  27   2  28   2  29   2  30   2
M  END
>  <_TriposChargeType>  (1) 
GASTEIGER

>  <SuCOS_score>  (1) 
0.364243614668308

>  <Volume_score>  (1) 
0.5359628770301624

>  <Feature_score>  (1) 
0.19252435230645365

$$$$
