DOCK.F36.P4k69/L1006_ligand.pdbt
     RDKit          3D

 42 46  0  0  0  0  0  0  0  0999 V2000
   -2.0010   39.2400   21.0000 C   0  0  0  0  0  3  0  0  0  0  0  0
    0.1300   39.4130   22.4930 C   0  0  0  0  0  0  0  0  0  0  0  0
   -0.6140   39.5120   21.3090 C   0  0  0  0  0  0  0  0  0  0  0  0
    0.3080   39.7960   20.3410 N   0  0  0  0  0  0  0  0  0  0  0  0
    1.5330   39.8700   20.8280 C   0  0  0  0  0  0  0  0  0  0  0  0
    2.7450   40.1190   20.1740 C   0  0  0  0  0  3  0  0  0  0  0  0
    3.9160   40.1290   20.8790 C   0  0  0  0  0  0  0  0  0  0  0  0
    5.2270   40.3940   20.2000 C   0  0  0  0  0  1  0  0  0  0  0  0
    3.8380   39.8870   22.2270 C   0  0  0  0  0  3  0  0  0  0  0  0
    2.6460   39.6420   22.8700 C   0  0  0  0  0  3  0  0  0  0  0  0
    1.4540   39.6300   22.1790 C   0  0  0  0  0  0  0  0  0  0  0  0
    0.0900   39.9470   19.3100 H   0  0  0  0  0  0  0  0  0  0  0  0
   -0.4460   39.2340   23.8000 C   0  0  0  0  0  2  0  0  0  0  0  0
   -0.1280   37.9950   24.5940 C   0  0  1  0  0  0  0  0  0  0  0  0
    0.5200   36.9310   23.6790 C   0  0  0  0  0  1  0  0  0  0  0  0
    0.7730   38.1940   25.7600 C   0  0  0  0  0  1  0  0  0  0  0  0
   -2.3210   35.4430   26.4940 C   0  0  0  0  0  1  0  0  0  0  0  0
   -1.1480   36.1920   25.9310 C   0  0  0  0  0  0  0  0  0  0  0  0
    0.0180   35.8090   26.1990 O   0  0  0  0  0  0  0  0  0  0  0  0
   -1.3650   37.3400   25.0910 N   0  0  0  0  0  0  0  0  0  0  0  0
   -2.3100   37.6670   24.8640 H   0  0  0  0  0  0  0  0  0  0  0  0
   -2.2890   37.7670   21.1820 C   0  0  0  0  0  0  0  0  0  0  0  0
   -2.0950   36.6720   20.5180 C   0  0  0  0  0  0  0  0  0  0  0  0
   -1.4940   36.3990   19.2780 O   0  0  0  0  0  0  0  0  0  0  0  0
   -2.7220   35.7960   21.5130 C   0  0  1  0  0  0  0  0  0  0  0  0
   -1.8230   34.8360   22.2310 C   0  0  0  0  0  1  0  0  0  0  0  0
   -2.9390   37.0390   22.2530 C   0  0  0  0  0  0  0  0  0  0  0  0
   -3.4650   37.3520   23.3540 O   0  0  0  0  0  0  0  0  0  0  0  0
   -0.5590   35.9980   19.3180 H   0  0  0  0  0  0  0  0  0  0  0  0
   -3.9490   35.1770   20.9200 C   0  0  0  0  0  0  0  0  0  0  0  0
   -4.0950   33.8050   20.8010 C   0  0  0  0  0  3  0  0  0  0  0  0
   -5.2420   33.2520   20.2500 C   0  0  0  0  0  3  0  0  0  0  0  0
   -6.2680   34.0580   19.8060 C   0  0  0  0  0  0  0  0  0  0  0  0
   -7.5150   33.4640   19.2060 C   0  0  0  0  0  1  0  0  0  0  0  0
   -6.1530   35.4090   19.9100 C   0  0  0  0  0  3  0  0  0  0  0  0
   -5.0040   35.9380   20.4610 C   0  0  0  0  0  3  0  0  0  0  0  0
   -3.0820   40.0380   21.5390 C   0  0  0  0  0  0  0  0  0  0  0  0
   -4.3710   39.7520   21.1980 C   0  0  0  0  0  3  0  0  0  0  0  0
   -5.4330   40.4910   21.6740 C   0  0  0  0  0  3  0  0  0  0  0  0
   -5.2370   41.5660   22.5270 C   0  0  0  0  0  3  0  0  0  0  0  0
   -3.9490   41.8710   22.8820 C   0  0  0  0  0  3  0  0  0  0  0  0
   -2.8980   41.1260   22.4010 C   0  0  0  0  0  3  0  0  0  0  0  0
 34 33  1  0
 24 29  1  0
 24 23  1  0
 12  4  1  0
 33 35  2  0
 33 32  1  0
 35 36  1  0
  6  5  1  0
  6  7  2  0
  8  7  1  0
 32 31  2  0
  4  5  1  0
  4  3  1  0
 36 30  2  0
 23 22  2  0
 23 25  1  0
 31 30  1  0
  5 11  2  0
  7  9  1  0
 30 25  1  0
  1 22  1  0
  1  3  1  0
  1 37  1  0
 22 27  1  0
 38 37  2  0
 38 39  1  0
  3  2  2  0
 25 26  1  1
 25 27  1  0
 37 42  1  0
 39 40  2  0
 11  2  1  0
 11 10  1  0
  9 10  2  0
 27 28  2  0
 42 41  2  0
  2 13  1  0
 40 41  1  0
 14 15  1  6
 13 14  1  0
 14 20  1  0
 14 16  1  0
 21 20  1  0
 20 18  1  0
 18 19  2  0
 18 17  1  0
M  RAD  8   1   2   6   2   8   2   9   2  10   2  13   3  15   2  16   2
M  RAD  8  17   2  26   2  31   2  32   2  34   2  35   2  36   2  38   2
M  RAD  4  39   2  40   2  41   2  42   2
M  END
>  <_TriposChargeType>  (1) 
GASTEIGER

>  <SuCOS_score>  (1) 
0.30248646757466363

>  <Volume_score>  (1) 
0.4896247240618101

>  <Feature_score>  (1) 
0.11534821108751714

$$$$
