DOCK.F36.P4k69/L1015_ligand.pdbt
     RDKit          3D

 32 35  0  0  0  0  0  0  0  0999 V2000
   -2.2350   36.5190   23.7040 N   0  0  0  0  0  0  0  0  0  0  0  0
   -3.2010   36.5780   23.3140 H   0  0  0  0  0  0  0  0  0  0  0  0
   -1.4870   35.3500   23.4840 C   0  0  0  0  0  0  0  0  0  0  0  0
   -0.4030   34.9340   24.2320 C   0  0  0  0  0  3  0  0  0  0  0  0
    0.2990   33.7680   23.9960 C   0  0  0  0  0  3  0  0  0  0  0  0
   -0.0800   32.9550   22.9630 C   0  0  0  0  0  0  0  0  0  0  0  0
   -1.1590   33.3420   22.1960 C   0  0  0  0  0  3  0  0  0  0  0  0
   -1.8410   34.4850   22.4340 C   0  0  0  0  0  0  0  0  0  0  0  0
    0.6130   31.7030   22.6470 C   0  0  0  0  0  0  0  0  0  0  0  0
    0.1170   30.8030   21.7210 C   0  0  0  0  0  3  0  0  0  0  0  0
    0.8040   29.6270   21.4500 C   0  0  0  0  0  3  0  0  0  0  0  0
    1.9440   29.3700   22.0890 N   0  0  0  0  0  0  0  0  0  0  0  0
    2.4650   30.2150   22.9980 C   0  0  0  0  0  3  0  0  0  0  0  0
    1.7940   31.3770   23.2710 C   0  0  0  0  0  3  0  0  0  0  0  0
   -3.2000   34.9290   21.4350 S   0  0  1  0  0  6  0  0  0  0  0  0
   -2.6180   36.0010   20.1460 C   0  0  0  0  0  1  0  0  0  0  0  0
   -3.7980   33.6970   20.8220 O   0  0  0  0  0  0  0  0  0  0  0  0
   -4.2880   35.5820   22.2430 O   0  0  0  0  0  0  0  0  0  0  0  0
   -1.6110   37.8280   24.5860 S   0  0  2  0  0  6  0  0  0  0  0  0
   -1.4650   37.4000   26.0400 O   0  0  0  0  0  0  0  0  0  0  0  0
   -2.5920   38.9710   24.6000 O   0  0  0  0  0  0  0  0  0  0  0  0
   -0.8080   39.0780   21.7310 C   0  0  0  0  0  1  0  0  0  0  0  0
    0.2860   38.9000   22.7750 C   0  0  0  0  0  0  0  0  0  0  0  0
   -0.0620   38.3700   23.9820 C   0  0  0  0  0  0  0  0  0  0  0  0
    1.3970   38.3360   24.8400 S   0  0  0  0  0  0  0  0  0  0  0  0
    2.4350   39.0010   23.6440 C   0  0  0  0  0  0  0  0  0  0  0  0
    3.8040   39.2880   23.6140 C   0  0  0  0  0  3  0  0  0  0  0  0
    4.3830   39.8340   22.4890 C   0  0  0  0  0  3  0  0  0  0  0  0
    3.5230   40.0610   21.4370 C   0  0  0  0  0  0  0  0  0  0  0  0
    4.0770   40.6010   20.3140 F   0  0  0  0  0  0  0  0  0  0  0  0
    2.1860   39.7880   21.4470 C   0  0  0  0  0  3  0  0  0  0  0  0
    1.5830   39.2280   22.5990 C   0  0  0  0  0  0  0  0  0  0  0  0
 15 16  1  6
 30 29  1  0
 17 15  2  0
 15 18  2  0
 15  8  1  0
 29 31  1  0
 29 28  2  0
 31 32  2  0
 11 10  2  0
 11 12  1  0
 10  9  1  0
 22 23  1  0
 12 13  2  0
  7  8  2  0
  7  6  1  0
  8  3  1  0
 28 27  1  0
 32 23  1  0
 32 26  1  0
  9  6  1  0
  9 14  2  0
 23 24  2  0
  6  5  2  0
 13 14  1  0
  2  1  1  0
  3  1  1  0
  3  4  2  0
 27 26  2  0
 26 25  1  0
 19  1  1  6
 24 19  1  0
 24 25  1  0
  5  4  1  0
 19 21  2  0
 19 20  2  0
M  RAD  8   4   2   5   2   7   2  10   2  11   2  13   2  14   2  16   2
M  RAD  4  22   2  27   2  28   2  31   2
M  END
>  <_TriposChargeType>  (1) 
GASTEIGER

>  <SuCOS_score>  (1) 
0.23167194029482452

>  <Volume_score>  (1) 
0.3121208779089004

>  <Feature_score>  (1) 
0.15122300268074862

$$$$
