DOCK.F36.P4k69/L1010_ligand.pdbt
     RDKit          3D

 24 27  0  0  0  0  0  0  0  0999 V2000
   -3.1630   39.7440   21.5290 C   0  0  0  0  0  0  0  0  0  0  0  0
   -4.2850   38.9660   21.3330 C   0  0  0  0  0  3  0  0  0  0  0  0
   -3.8420   37.7340   20.9150 C   0  0  0  0  0  0  0  0  0  0  0  0
   -4.5250   36.5600   20.5700 C   0  0  0  0  0  3  0  0  0  0  0  0
   -3.8560   35.4280   20.1720 C   0  0  0  0  0  3  0  0  0  0  0  0
   -2.4940   35.4710   20.1190 C   0  0  0  0  0  3  0  0  0  0  0  0
   -1.8190   36.6250   20.4570 C   0  0  0  0  0  3  0  0  0  0  0  0
   -2.4840   37.7810   20.8620 C   0  0  0  0  0  0  0  0  0  0  0  0
   -2.0820   39.0030   21.2360 N   0  0  0  0  0  0  0  0  0  0  0  0
   -3.6410   41.3700   23.1270 O   0  0  0  0  0  1  0  0  0  0  0  0
   -3.2090   41.1340   21.9790 C   0  0  0  0  0  0  0  0  0  0  0  0
   -2.8000   42.2000   21.2000 O   0  0  0  0  0  0  0  0  0  0  0  0
   -0.7240   39.4270   21.3050 C   0  0  0  0  0  2  0  0  0  0  0  0
   -0.0300   39.0590   22.5400 C   0  0  0  0  0  0  0  0  0  0  0  0
   -0.6620   38.5070   23.6280 C   0  0  0  0  0  3  0  0  0  0  0  0
    0.0970   38.2020   24.7350 C   0  0  0  0  0  3  0  0  0  0  0  0
    1.4560   38.4280   24.7940 C   0  0  0  0  0  3  0  0  0  0  0  0
    2.1040   38.9870   23.6940 C   0  0  0  0  0  0  0  0  0  0  0  0
    3.4620   39.2210   23.7330 C   0  0  0  0  0  3  0  0  0  0  0  0
    4.0720   39.7750   22.6290 C   0  0  0  0  0  3  0  0  0  0  0  0
    3.3560   40.0910   21.5120 C   0  0  0  0  0  0  0  0  0  0  0  0
    3.9220   40.6400   20.4000 F   0  0  0  0  0  0  0  0  0  0  0  0
    2.0080   39.8440   21.5110 C   0  0  0  0  0  3  0  0  0  0  0  0
    1.3310   39.2830   22.6010 C   0  0  0  0  0  0  0  0  0  0  0  0
  6  5  2  0
  6  7  1  0
  5  4  1  0
 22 21  1  0
  7  8  2  0
  4  3  2  0
  8  3  1  0
  8  9  1  0
  3  2  1  0
 12 11  2  0
  9 13  1  0
  9  1  1  0
 13 14  1  0
  2  1  2  0
 23 21  1  0
 23 24  2  0
 21 20  2  0
  1 11  1  0
 11 10  1  0
 14 24  1  0
 14 15  2  0
 24 18  1  0
 20 19  1  0
 15 16  1  0
 18 19  2  0
 18 17  1  0
 16 17  2  0
M  RAD  8   2   2   4   2   5   2   6   2   7   2  13   3  15   2  16   2
M  CHG  1  10  -1
M  RAD  4  17   2  19   2  20   2  23   2
M  END
>  <_TriposChargeType>  (1) 
GASTEIGER

>  <SuCOS_score>  (1) 
0.32979999219553613

>  <Volume_score>  (1) 
0.4245939675174014

>  <Feature_score>  (1) 
0.23500601687367081

$$$$
