DOCK.F36.P4k69/L1013_ligand.pdbt
     RDKit          3D

 27 30  0  0  0  0  0  0  0  0999 V2000
   -4.3490   39.1530   21.4180 N   0  0  0  0  0  4  0  0  0  0  0  0
   -3.2270   39.9200   21.5340 C   0  0  0  0  0  0  0  0  0  0  0  0
   -2.1070   39.2120   21.1610 C   0  0  0  0  0  0  0  0  0  0  0  0
   -2.6200   37.9440   20.8010 C   0  0  0  0  0  0  0  0  0  0  0  0
   -2.0110   36.8050   20.3210 C   0  0  0  0  0  3  0  0  0  0  0  0
   -2.7490   35.6790   20.0130 C   0  0  0  0  0  3  0  0  0  0  0  0
   -4.1090   35.6890   20.1880 C   0  0  0  0  0  3  0  0  0  0  0  0
   -4.7350   36.8140   20.6650 C   0  0  0  0  0  3  0  0  0  0  0  0
   -3.9640   37.9520   20.9700 C   0  0  0  0  0  0  0  0  0  0  0  0
   -3.3080   41.3130   21.9750 C   0  0  0  0  0  0  0  0  0  0  0  0
   -2.8000   42.2010   21.2000 O   0  0  0  0  0  1  0  0  0  0  0  0
   -3.8810   41.7470   23.1500 O   0  0  0  0  0  0  0  0  0  0  0  0
   -5.7360   39.4930   21.7120 C   0  0  0  0  0  2  0  0  0  0  0  0
   -6.4550   39.9650   20.4730 C   0  0  0  0  0  2  0  0  0  0  0  0
   -6.8010   42.1990   20.9910 C   0  0  0  0  0  1  0  0  0  0  0  0
   -6.2280   41.2700   20.1320 O   0  0  0  0  0  0  0  0  0  0  0  0
   -0.6990   39.6120   21.0460 C   0  0  0  0  0  2  0  0  0  0  0  0
    0.2680   39.3780   22.0660 C   0  0  0  0  0  0  0  0  0  0  0  0
   -0.1280   38.9830   23.3610 C   0  0  0  0  0  3  0  0  0  0  0  0
    0.7220   38.8000   24.4030 C   0  0  0  0  0  3  0  0  0  0  0  0
    2.0610   38.9980   24.2390 C   0  0  0  0  0  3  0  0  0  0  0  0
    2.5190   39.3840   23.0070 C   0  0  0  0  0  0  0  0  0  0  0  0
    3.8790   39.6000   22.8260 C   0  0  0  0  0  3  0  0  0  0  0  0
    4.3990   39.9980   21.6070 C   0  0  0  0  0  3  0  0  0  0  0  0
    3.5300   40.1770   20.5790 C   0  0  0  0  0  3  0  0  0  0  0  0
    2.1910   39.9610   20.7710 C   0  0  0  0  0  3  0  0  0  0  0  0
    1.6200   39.5660   21.9520 C   0  0  0  0  0  0  0  0  0  0  0  0
  6  7  2  0
  6  5  1  0
 16 14  1  0
 16 15  1  0
  7  8  1  0
  5  4  2  0
 14 13  1  0
 25 26  1  0
 25 24  2  0
  8  9  2  0
 26 27  2  0
  4  9  1  0
  4  3  1  0
  9  1  1  0
 17  3  1  0
 17 18  1  0
  3  2  2  0
 11 10  1  0
  1  2  1  0
  1 13  1  0
  2 10  1  0
 24 23  1  0
 27 18  1  0
 27 22  1  0
 10 12  2  0
 18 19  2  0
 23 22  2  0
 22 21  1  0
 19 20  1  0
 21 20  2  0
M  RAD  8   5   2   6   2   7   2   8   2  13   3  14   3  15   2  17   3
M  CHG  2   1   1  11  -1
M  RAD  7  19   2  20   2  21   2  23   2  24   2  25   2  26   2
M  END
>  <_TriposChargeType>  (1) 
GASTEIGER

>  <SuCOS_score>  (1) 
0.3410389882217332

>  <Volume_score>  (1) 
0.4999447574853607

>  <Feature_score>  (1) 
0.18213321895810558

$$$$
