DOCK.F36.P4k5z/L1007_ligand.pdbt
     RDKit          3D

 31 35  0  0  0  0  0  0  0  0999 V2000
   -2.1290   37.5110   22.8010 C   0  0  0  0  0  3  0  0  0  0  0  0
   -0.7710   38.0430   22.8400 C   0  0  0  0  0  0  0  0  0  0  0  0
   -0.1130   37.9920   24.0820 C   0  0  0  0  0  3  0  0  0  0  0  0
    1.1610   38.4530   24.2760 C   0  0  0  0  0  3  0  0  0  0  0  0
    1.8410   38.9960   23.2090 C   0  0  0  0  0  0  0  0  0  0  0  0
    3.1380   39.4700   23.3890 C   0  0  0  0  0  3  0  0  0  0  0  0
    3.8100   40.0110   22.3220 C   0  0  0  0  0  3  0  0  0  0  0  0
    3.1680   40.0630   21.1060 C   0  0  0  0  0  3  0  0  0  0  0  0
    1.8930   39.5980   20.9220 C   0  0  0  0  0  3  0  0  0  0  0  0
    1.1930   39.0470   21.9880 C   0  0  0  0  0  0  0  0  0  0  0  0
   -0.0900   38.5810   21.7970 C   0  0  0  0  0  3  0  0  0  0  0  0
   -4.4750   41.3360   22.9790 C   0  0  0  0  0  1  0  0  0  0  0  0
   -4.6500   39.9290   22.3870 C   0  0  2  0  0  0  0  0  0  0  0  0
   -4.3990   38.9050   23.3660 C   0  0  0  0  0  0  0  0  0  0  0  0
   -4.9900   38.5280   24.3950 O   0  0  0  0  0  0  0  0  0  0  0  0
   -3.2120   38.5320   22.6540 C   0  0  0  0  0  0  0  0  0  0  0  0
   -3.4400   39.4680   21.7600 C   0  0  0  0  0  0  0  0  0  0  0  0
   -2.7710   39.8940   20.6000 O   0  0  0  0  0  0  0  0  0  0  0  0
   -1.8660   40.3290   20.7380 H   0  0  0  0  0  0  0  0  0  0  0  0
   -5.8980   39.8250   21.5950 C   0  0  0  0  0  0  0  0  0  0  0  0
   -6.0690   40.6940   20.5430 C   0  0  0  0  0  3  0  0  0  0  0  0
   -7.2020   40.6710   19.7480 C   0  0  0  0  0  3  0  0  0  0  0  0
   -8.2000   39.7630   19.9990 C   0  0  0  0  0  3  0  0  0  0  0  0
   -8.0240   38.8930   21.0550 C   0  0  0  0  0  3  0  0  0  0  0  0
   -6.8880   38.9240   21.8430 C   0  0  0  0  0  3  0  0  0  0  0  0
   -2.2060   36.4110   21.8260 C   0  0  0  0  0  0  0  0  0  0  0  0
   -2.8090   36.5840   20.6000 C   0  0  0  0  0  3  0  0  0  0  0  0
   -2.9160   35.5840   19.6700 C   0  0  0  0  0  3  0  0  0  0  0  0
   -2.4010   34.3460   19.9580 C   0  0  0  0  0  3  0  0  0  0  0  0
   -1.7930   34.1580   21.1830 C   0  0  0  0  0  3  0  0  0  0  0  0
   -1.6840   35.1650   22.1270 C   0  0  0  0  0  3  0  0  0  0  0  0
 28 29  1  0
 28 27  2  0
 22 23  1  0
 22 21  2  0
 29 30  2  0
 23 24  2  0
 21 20  1  0
 27 26  1  0
 18 19  1  0
 18 17  1  0
  9  8  2  0
  9 10  1  0
 24 25  1  0
  8  7  1  0
 30 31  1  0
 20 25  2  0
 20 13  1  0
 17 13  1  0
 17 16  2  0
 11 10  2  0
 11  2  1  0
 26 31  2  0
 26  1  1  0
 10  5  1  0
  7  6  2  0
 13 12  1  1
 13 14  1  0
 16  1  1  0
 16 14  1  0
  1  2  1  0
  2  3  2  0
  5  6  1  0
  5  4  2  0
 14 15  2  0
  3  4  1  0
M  RAD  8   1   2   3   2   4   2   6   2   7   2   8   2   9   2  11   2
M  RAD  8  12   2  21   2  22   2  23   2  24   2  25   2  27   2  28   2
M  RAD  3  29   2  30   2  31   2
M  END
>  <_TriposChargeType>  (1) 
GASTEIGER

>  <SuCOS_score>  (1) 
0.277923473210506

>  <Volume_score>  (1) 
0.4592862667108607

>  <Feature_score>  (1) 
0.09656067971015127

$$$$
