DOCK.F36.P4k5z/L1006_ligand.pdbt
     RDKit          3D

 42 46  0  0  0  0  0  0  0  0999 V2000
   -6.4370   41.4630   22.1810 C   0  0  0  0  0  3  0  0  0  0  0  0
   -7.4500   42.2080   24.4660 C   0  0  0  0  0  0  0  0  0  0  0  0
   -6.9040   41.3060   23.5410 C   0  0  0  0  0  0  0  0  0  0  0  0
   -7.0290   40.0810   24.1340 N   0  0  0  0  0  0  0  0  0  0  0  0
   -7.6050   40.1600   25.3200 C   0  0  0  0  0  0  0  0  0  0  0  0
   -7.9280   39.1460   26.2290 C   0  0  0  0  0  3  0  0  0  0  0  0
   -8.5490   39.4530   27.4070 C   0  0  0  0  0  0  0  0  0  0  0  0
   -8.9050   38.3830   28.3970 C   0  0  0  0  0  1  0  0  0  0  0  0
   -8.8300   40.7740   27.6410 C   0  0  0  0  0  3  0  0  0  0  0  0
   -8.5120   41.7720   26.7480 C   0  0  0  0  0  3  0  0  0  0  0  0
   -7.8840   41.4850   25.5550 C   0  0  0  0  0  0  0  0  0  0  0  0
   -6.7090   39.1580   23.7110 H   0  0  0  0  0  0  0  0  0  0  0  0
   -7.4290   43.6390   24.3120 C   0  0  0  0  0  2  0  0  0  0  0  0
   -6.1190   44.3770   24.3570 C   0  0  1  0  0  0  0  0  0  0  0  0
   -5.1590   43.6940   25.3580 C   0  0  0  0  0  1  0  0  0  0  0  0
   -5.4040   44.4940   23.0590 C   0  0  0  0  0  1  0  0  0  0  0  0
   -5.1370   47.7340   25.9990 C   0  0  0  0  0  1  0  0  0  0  0  0
   -5.0900   46.3490   25.4220 C   0  0  0  0  0  0  0  0  0  0  0  0
   -4.0020   45.7230   25.4000 O   0  0  0  0  0  0  0  0  0  0  0  0
   -6.2900   45.7500   24.8990 N   0  0  0  0  0  0  0  0  0  0  0  0
   -7.1860   46.2470   24.9080 H   0  0  0  0  0  0  0  0  0  0  0  0
   -5.0860   40.8040   22.0210 C   0  0  0  0  0  0  0  0  0  0  0  0
   -4.2240   40.6250   21.0720 C   0  0  0  0  0  0  0  0  0  0  0  0
   -4.1990   40.9990   19.7190 O   0  0  0  0  0  0  0  0  0  0  0  0
   -3.2630   39.8870   21.8990 C   0  0  1  0  0  0  0  0  0  0  0  0
   -1.9520   40.5580   22.1730 C   0  0  0  0  0  1  0  0  0  0  0  0
   -4.2450   40.0930   22.9620 C   0  0  0  0  0  0  0  0  0  0  0  0
   -4.3310   39.7870   24.1820 O   0  0  0  0  0  0  0  0  0  0  0  0
   -3.5980   41.7890   19.4890 H   0  0  0  0  0  0  0  0  0  0  0  0
   -3.1510   38.4850   21.3890 C   0  0  0  0  0  0  0  0  0  0  0  0
   -4.2520   37.6520   21.2770 C   0  0  0  0  0  3  0  0  0  0  0  0
   -4.1250   36.3560   20.8000 C   0  0  0  0  0  3  0  0  0  0  0  0
   -2.8950   35.8620   20.4250 C   0  0  0  0  0  0  0  0  0  0  0  0
   -2.7500   34.4550   19.9070 C   0  0  0  0  0  1  0  0  0  0  0  0
   -1.7940   36.6560   20.5230 C   0  0  0  0  0  3  0  0  0  0  0  0
   -1.9430   37.9420   21.0000 C   0  0  0  0  0  3  0  0  0  0  0  0
   -7.2790   41.1770   21.0390 C   0  0  0  0  0  0  0  0  0  0  0  0
   -7.8000   39.9270   20.8770 C   0  0  0  0  0  3  0  0  0  0  0  0
   -8.5960   39.6020   19.7980 C   0  0  0  0  0  3  0  0  0  0  0  0
   -8.9040   40.5390   18.8230 C   0  0  0  0  0  3  0  0  0  0  0  0
   -8.3910   41.8010   18.9660 C   0  0  0  0  0  3  0  0  0  0  0  0
   -7.5990   42.1130   20.0470 C   0  0  0  0  0  3  0  0  0  0  0  0
 40 41  2  0
 40 39  1  0
 41 42  1  0
 29 24  1  0
 24 23  1  0
 39 38  2  0
 34 33  1  0
 42 37  2  0
 33 35  2  0
 33 32  1  0
 35 36  1  0
 32 31  2  0
 38 37  1  0
 36 30  2  0
 37  1  1  0
 23 25  1  0
 23 22  2  0
 31 30  1  0
 30 25  1  0
 25 26  1  1
 25 27  1  0
 22  1  1  0
 22 27  1  0
  1  3  1  0
 27 28  2  0
 14 16  1  6
  3  4  1  0
  3  2  2  0
 12  4  1  0
  4  5  1  0
 13 14  1  0
 13  2  1  0
 14 20  1  0
 14 15  1  0
  2 11  1  0
 20 21  1  0
 20 18  1  0
  5 11  2  0
  5  6  1  0
 19 18  2  0
 18 17  1  0
 11 10  1  0
  6  7  2  0
 10  9  2  0
  7  9  1  0
  7  8  1  0
M  RAD  8   1   2   6   2   8   2   9   2  10   2  13   3  15   2  16   2
M  RAD  8  17   2  26   2  31   2  32   2  34   2  35   2  36   2  38   2
M  RAD  4  39   2  40   2  41   2  42   2
M  END
>  <_TriposChargeType>  (1) 
GASTEIGER

>  <SuCOS_score>  (1) 
0.2778435450988835

>  <Volume_score>  (1) 
0.4812196199734865

>  <Feature_score>  (1) 
0.0744674702242805

$$$$
