DOCK.F36.P4k5z/L1002_ligand.pdbt
     RDKit          3D

 40 44  0  0  0  0  0  0  0  0999 V2000
   -2.3210   37.6930   22.6680 C   0  0  0  0  0  3  0  0  0  0  0  0
    3.2010   39.8210   21.5810 C   0  0  0  0  0  0  0  0  0  0  0  0
    3.4370   39.5560   22.9150 C   0  0  0  0  0  3  0  0  0  0  0  0
    2.4300   39.0260   23.6720 C   0  0  0  0  0  3  0  0  0  0  0  0
    1.1940   38.7640   23.0860 C   0  0  0  0  0  0  0  0  0  0  0  0
    0.0170   38.2450   23.5720 C   0  0  0  0  0  0  0  0  0  0  0  0
   -0.9230   38.1890   22.5650 C   0  0  0  0  0  0  0  0  0  0  0  0
   -0.3330   38.6740   21.4510 N   0  0  0  0  0  0  0  0  0  0  0  0
    0.9460   39.0250   21.7430 C   0  0  0  0  0  0  0  0  0  0  0  0
    1.9780   39.5640   20.9880 C   0  0  0  0  0  3  0  0  0  0  0  0
   -0.7210   38.7900   20.4890 H   0  0  0  0  0  0  0  0  0  0  0  0
    4.5450   39.6110   19.5220 C   0  0  0  0  0  1  0  0  0  0  0  0
    4.3330   40.3980   20.8000 C   0  0  0  0  0  2  0  0  0  0  0  0
   -0.1920   37.8200   24.9660 C   0  0  0  0  0  2  0  0  0  0  0  0
    0.5520   36.5900   25.3430 C   0  0  0  0  0  2  0  0  0  0  0  0
    0.6000   35.6820   24.2260 N   0  0  0  0  0  0  0  0  0  0  0  0
   -0.1790   34.5280   24.0850 C   0  0  0  0  0  0  0  0  0  0  0  0
   -0.0690   33.6300   22.8740 C   0  0  0  0  0  1  0  0  0  0  0  0
   -0.9990   34.2310   24.9930 O   0  0  0  0  0  0  0  0  0  0  0  0
    1.2850   35.9130   23.4500 H   0  0  0  0  0  0  0  0  0  0  0  0
   -3.2910   38.8370   22.7520 C   0  0  0  0  0  0  0  0  0  0  0  0
   -3.5720   39.7530   21.8750 C   0  0  0  0  0  0  0  0  0  0  0  0
   -3.0000   39.8750   20.6000 O   0  0  0  0  0  0  0  0  0  0  0  0
   -4.5990   40.7020   22.3670 C   0  0  0  0  0  3  0  0  0  0  0  0
   -5.1040   40.1140   23.6420 C   0  0  0  0  0  2  0  0  0  0  0  0
   -4.1030   39.0640   23.9400 C   0  0  0  0  0  0  0  0  0  0  0  0
   -4.0000   38.4800   25.0640 O   0  0  0  0  0  0  0  0  0  0  0  0
   -3.6420   39.9930   19.8240 H   0  0  0  0  0  0  0  0  0  0  0  0
   -5.6940   40.8900   21.3860 C   0  0  0  0  0  0  0  0  0  0  0  0
   -6.1460   42.1580   21.1090 C   0  0  0  0  0  3  0  0  0  0  0  0
   -7.1710   42.3790   20.1980 C   0  0  0  0  0  3  0  0  0  0  0  0
   -7.7500   41.2970   19.5570 C   0  0  0  0  0  3  0  0  0  0  0  0
   -7.2940   40.0230   19.8370 C   0  0  0  0  0  3  0  0  0  0  0  0
   -6.2750   39.8260   20.7440 C   0  0  0  0  0  3  0  0  0  0  0  0
   -2.6260   36.8130   21.5200 C   0  0  0  0  0  0  0  0  0  0  0  0
   -3.9330   36.4600   21.3000 C   0  0  0  0  0  3  0  0  0  0  0  0
   -4.2800   35.6440   20.2520 C   0  0  0  0  0  3  0  0  0  0  0  0
   -3.3090   35.1650   19.4010 C   0  0  0  0  0  3  0  0  0  0  0  0
   -2.0030   35.5330   19.6410 C   0  0  0  0  0  3  0  0  0  0  0  0
   -1.6510   36.3530   20.6930 C   0  0  0  0  0  3  0  0  0  0  0  0
 38 39  2  0
 38 37  1  0
 12 13  1  0
 32 33  2  0
 32 31  1  0
 39 40  1  0
 28 23  1  0
 33 34  1  0
 31 30  2  0
 37 36  2  0
 11  8  1  0
 23 22  1  0
 40 35  2  0
 34 29  2  0
 13  2  1  0
 10  2  2  0
 10  9  1  0
 30 29  1  0
 36 35  1  0
 29 24  1  0
  8  9  1  0
  8  7  1  0
 35  1  1  0
  2  3  1  0
  9  5  2  0
 22 24  1  0
 22 21  2  0
 24 25  1  0
  7  1  1  0
  7  6  2  0
  1 21  1  0
 21 26  1  0
 18 17  1  0
  3  4  2  0
  5  6  1  0
  5  4  1  0
 20 16  1  0
  6 14  1  0
 25 26  1  0
 26 27  2  0
 17 16  1  0
 17 19  2  0
 16 15  1  0
 14 15  1  0
M  RAD  8   1   2   3   2   4   2  10   2  12   2  13   3  14   3  15   3
M  RAD  8  18   2  24   2  25   3  30   2  31   2  32   2  33   2  34   2
M  RAD  5  36   2  37   2  38   2  39   2  40   2
M  END
>  <_TriposChargeType>  (1) 
GASTEIGER

>  <SuCOS_score>  (1) 
0.3206808734881219

>  <Volume_score>  (1) 
0.5287025771485455

>  <Feature_score>  (1) 
0.11265916982769826

$$$$
