DOCK.F36.P4k5z/L1003_ligand.pdbt
     RDKit          3D

 32 35  0  0  0  0  0  0  0  0999 V2000
   -1.8290   37.5890   21.4550 N   0  0  0  0  0  0  0  0  0  0  0  0
   -2.5200   37.6540   20.6460 H   0  0  0  0  0  0  0  0  0  0  0  0
   -1.4500   36.3080   21.8520 C   0  0  0  0  0  0  0  0  0  0  0  0
   -0.7260   36.0590   23.0080 C   0  0  0  0  0  3  0  0  0  0  0  0
   -0.3530   34.7770   23.3780 C   0  0  0  0  0  3  0  0  0  0  0  0
   -0.6910   33.6940   22.5990 C   0  0  0  0  0  0  0  0  0  0  0  0
   -1.4070   33.9220   21.4500 C   0  0  0  0  0  3  0  0  0  0  0  0
   -1.7790   35.2120   21.0840 C   0  0  0  0  0  0  0  0  0  0  0  0
   -0.3280   32.3250   22.9340 C   0  0  0  0  0  0  0  0  0  0  0  0
    0.9960   31.9210   23.0010 C   0  0  0  0  0  3  0  0  0  0  0  0
    1.3730   30.6330   23.3140 C   0  0  0  0  0  3  0  0  0  0  0  0
    0.4010   29.7180   23.5700 N   0  0  0  0  0  0  0  0  0  0  0  0
   -0.8860   30.0840   23.5120 C   0  0  0  0  0  3  0  0  0  0  0  0
   -1.2840   31.3670   23.2000 C   0  0  0  0  0  3  0  0  0  0  0  0
   -2.5380   35.3440   19.8300 C   0  0  2  0  0  0  0  0  0  0  0  0
   -3.6000   36.2000   19.9090 F   0  0  0  0  0  0  0  0  0  0  0  0
   -2.9460   34.0640   19.4240 F   0  0  0  0  0  0  0  0  0  0  0  0
   -1.7340   35.8000   18.8050 F   0  0  0  0  0  0  0  0  0  0  0  0
   -1.3170   39.0820   22.1080 S   0  0  1  0  0  6  0  0  0  0  0  0
   -1.9850   40.2390   21.4000 O   0  0  0  0  0  0  0  0  0  0  0  0
   -1.7710   39.2120   23.5590 O   0  0  0  0  0  0  0  0  0  0  0  0
    1.0370   38.5270   24.3720 C   0  0  0  0  0  1  0  0  0  0  0  0
    1.4010   39.0650   22.9960 C   0  0  0  0  0  0  0  0  0  0  0  0
    0.4190   39.2760   22.0850 C   0  0  0  0  0  0  0  0  0  0  0  0
    1.2820   39.8570   20.7180 S   0  0  0  0  0  0  0  0  0  0  0  0
    2.8600   39.8130   21.3530 C   0  0  0  0  0  0  0  0  0  0  0  0
    4.1050   40.1450   20.8160 C   0  0  0  0  0  3  0  0  0  0  0  0
    5.2530   40.0110   21.5660 C   0  0  0  0  0  3  0  0  0  0  0  0
    5.0680   39.5370   22.8480 C   0  0  0  0  0  0  0  0  0  0  0  0
    6.2020   39.4000   23.6000 F   0  0  0  0  0  0  0  0  0  0  0  0
    3.8540   39.2090   23.3830 C   0  0  0  0  0  3  0  0  0  0  0  0
    2.6770   39.3440   22.6190 C   0  0  0  0  0  0  0  0  0  0  0  0
 15 18  1  6
 17 15  1  0
 15 16  1  0
 15  8  1  0
  2  1  1  0
 25 26  1  0
 25 24  1  0
 27 26  1  0
 27 28  2  0
  8  7  2  0
  8  3  1  0
 26 32  2  0
 20 19  2  0
  7  6  1  0
  1  3  1  0
 19  1  1  6
 28 29  1  0
  3  4  2  0
 24 19  1  0
 24 23  2  0
 19 21  2  0
  6  9  1  0
  6  5  2  0
 32 23  1  0
 32 31  1  0
 29 31  2  0
 29 30  1  0
  9 10  2  0
  9 14  1  0
 23 22  1  0
 10 11  1  0
  4  5  1  0
 14 13  2  0
 11 12  2  0
 13 12  1  0
M  RAD  8   4   2   5   2   7   2  10   2  11   2  13   2  14   2  22   2
M  RAD  3  27   2  28   2  31   2
M  END
>  <_TriposChargeType>  (1) 
GASTEIGER

>  <SuCOS_score>  (1) 
0.27756801064946457

>  <Volume_score>  (1) 
0.3733643823464182

>  <Feature_score>  (1) 
0.18177163895251086

$$$$
