DOCK.F36.P4k5z/L1016_ligand.pdbt
     RDKit          3D

 29 32  0  0  0  0  0  0  0  0999 V2000
   -1.8620   36.9630   22.7570 C   0  0  0  0  0  0  0  0  0  0  0  0
   -1.3580   38.2670   22.6290 C   0  0  0  0  0  0  0  0  0  0  0  0
   -0.4090   38.4670   23.5200 N   0  0  0  0  0  4  0  0  0  0  0  0
   -0.2950   37.2600   24.2530 C   0  0  0  0  0  0  0  0  0  0  0  0
    0.5120   36.8820   25.2860 C   0  0  0  0  0  3  0  0  0  0  0  0
    0.4510   35.6380   25.8460 C   0  0  0  0  0  3  0  0  0  0  0  0
   -0.4600   34.7260   25.3520 C   0  0  0  0  0  3  0  0  0  0  0  0
   -1.2910   35.0590   24.3160 C   0  0  0  0  0  3  0  0  0  0  0  0
   -1.1900   36.3480   23.7750 C   0  0  0  0  0  0  0  0  0  0  0  0
   -1.8530   39.2050   21.6290 C   0  0  0  0  0  0  0  0  0  0  0  0
   -1.8000   39.0000   20.4000 O   0  0  0  0  0  1  0  0  0  0  0  0
   -2.4260   40.4020   22.0230 O   0  0  0  0  0  0  0  0  0  0  0  0
   -2.9370   36.3320   21.9600 C   0  0  0  0  0  2  0  0  0  0  0  0
   -2.6900   34.5220   18.5550 C   0  0  0  0  0  1  0  0  0  0  0  0
   -3.2310   35.0860   19.7690 N   0  0  0  0  0  0  0  0  0  0  0  0
   -4.6360   34.9990   20.0400 C   0  0  0  0  0  1  0  0  0  0  0  0
   -2.3940   35.7420   20.7040 C   0  0  0  0  0  0  0  0  0  0  0  0
   -1.1560   35.8480   20.4930 O   0  0  0  0  0  0  0  0  0  0  0  0
    0.5010   39.5010   23.8310 C   0  0  0  0  0  2  0  0  0  0  0  0
    1.4910   39.9080   22.7630 C   0  0  0  0  0  0  0  0  0  0  0  0
    1.0050   40.4060   21.5820 C   0  0  0  0  0  3  0  0  0  0  0  0
    2.4010   40.5950   20.6290 S   0  0  0  0  0  0  0  0  0  0  0  0
    3.5750   40.0490   21.7320 C   0  0  0  0  0  0  0  0  0  0  0  0
    4.9730   39.9540   21.6760 C   0  0  0  0  0  3  0  0  0  0  0  0
    5.6940   39.5230   22.7630 C   0  0  0  0  0  3  0  0  0  0  0  0
    4.9650   39.1990   23.8750 C   0  0  0  0  0  0  0  0  0  0  0  0
    5.6580   38.7670   24.9630 F   0  0  0  0  0  0  0  0  0  0  0  0
    3.6060   39.2840   23.9440 C   0  0  0  0  0  3  0  0  0  0  0  0
    2.8370   39.7230   22.8390 C   0  0  0  0  0  0  0  0  0  0  0  0
 14 15  1  0
 15 16  1  0
 15 17  1  0
 11 10  1  0
 18 17  2  0
 22 21  1  0
 22 23  1  0
 17 13  1  0
 21 20  2  0
 10 12  2  0
 10  2  1  0
 24 23  2  0
 24 25  1  0
 23 29  1  0
 13  1  1  0
  2  1  2  0
  2  3  1  0
  1  9  1  0
 20 29  1  0
 20 19  1  0
 25 26  2  0
 29 28  2  0
  3 19  1  0
  3  4  1  0
  9  4  2  0
  9  8  1  0
 26 28  1  0
 26 27  1  0
  4  5  1  0
  8  7  2  0
  5  6  2  0
  7  6  1  0
M  RAD  8   5   2   6   2   7   2   8   2  13   3  14   2  16   2  19   3
M  CHG  2   3   1  11  -1
M  RAD  4  21   2  24   2  25   2  28   2
M  END
>  <_TriposChargeType>  (1) 
GASTEIGER

>  <SuCOS_score>  (1) 
0.3178218720102609

>  <Volume_score>  (1) 
0.4159938059949121

>  <Feature_score>  (1) 
0.2196499380256097

$$$$
