DOCK.F36.P4k5z/L1017_ligand.pdbt
     RDKit          3D

 31 34  0  0  0  0  0  0  0  0999 V2000
   -1.9750   37.8180   21.4820 C   0  0  0  0  0  0  0  0  0  0  0  0
   -3.1650   38.3030   21.9700 C   0  0  0  0  0  0  0  0  0  0  0  0
   -4.2060   37.6080   21.5250 N   0  0  0  0  0  4  0  0  0  0  0  0
   -3.7340   36.6480   20.7290 C   0  0  0  0  0  0  0  0  0  0  0  0
   -4.3080   35.6300   19.9710 C   0  0  0  0  0  3  0  0  0  0  0  0
   -3.6240   34.7380   19.2000 C   0  0  0  0  0  3  0  0  0  0  0  0
   -2.2280   34.8420   19.1530 C   0  0  0  0  0  0  0  0  0  0  0  0
   -1.5210   34.0010   18.3900 F   0  0  0  0  0  0  0  0  0  0  0  0
   -1.6190   35.8360   19.8970 C   0  0  0  0  0  3  0  0  0  0  0  0
   -2.3250   36.7290   20.6720 C   0  0  0  0  0  0  0  0  0  0  0  0
   -3.1850   39.4510   22.9400 C   0  0  0  0  0  0  0  0  0  0  0  0
   -3.3990   39.1990   24.1430 O   0  0  0  0  0  1  0  0  0  0  0  0
   -3.0010   40.7640   22.5950 O   0  0  0  0  0  0  0  0  0  0  0  0
   -0.6700   38.4570   21.4510 C   0  0  0  0  0  2  0  0  0  0  0  0
    0.4190   37.9470   22.2010 N   0  0  0  0  0  0  0  0  0  0  0  0
    0.8620   37.0710   22.0240 H   0  0  0  0  0  0  0  0  0  0  0  0
    1.1820   40.4170   20.9760 C   0  0  0  0  0  1  0  0  0  0  0  0
    1.5750   39.2630   22.2560 S   0  0  2  0  0  6  0  0  0  0  0  0
    2.9540   38.8000   22.1990 O   0  0  0  0  0  0  0  0  0  0  0  0
    1.3520   40.0000   23.6010 O   0  0  0  0  0  0  0  0  0  0  0  0
   -5.5740   37.7530   21.9490 C   0  0  0  0  0  2  0  0  0  0  0  0
   -6.3410   38.7040   21.1410 C   0  0  0  0  0  0  0  0  0  0  0  0
   -5.8970   39.9310   20.7990 C   0  0  0  0  0  3  0  0  0  0  0  0
   -6.6600   40.8060   20.0670 C   0  0  0  0  0  3  0  0  0  0  0  0
   -7.9300   40.4510   19.6520 C   0  0  0  0  0  3  0  0  0  0  0  0
   -8.3930   39.1720   20.0120 C   0  0  0  0  0  0  0  0  0  0  0  0
   -9.6540   38.8000   19.6000 C   0  0  0  0  0  3  0  0  0  0  0  0
  -10.1300   37.5540   19.9280 C   0  0  0  0  0  3  0  0  0  0  0  0
   -9.3820   36.6670   20.6530 C   0  0  0  0  0  3  0  0  0  0  0  0
   -8.1460   37.0620   21.0360 C   0  0  0  0  0  3  0  0  0  0  0  0
   -7.6030   38.3380   20.7350 C   0  0  0  0  0  0  0  0  0  0  0  0
  8  7  1  0
  7  6  2  0
  7  9  1  0
  6  5  1  0
 27 28  2  0
 27 26  1  0
 25 26  2  0
 25 24  1  0
  9 10  2  0
 28 29  1  0
  5  4  2  0
 26 31  1  0
 24 23  2  0
 29 30  2  0
 10  4  1  0
 10  1  1  0
  4  3  1  0
 31 30  1  0
 31 22  2  0
 23 22  1  0
 18 17  1  6
 22 21  1  0
 14  1  1  0
 14 15  1  0
  1  2  2  0
  3 21  1  0
  3  2  1  0
  2 11  1  0
 16 15  1  0
 19 18  2  0
 15 18  1  0
 18 20  2  0
 13 11  2  0
 11 12  1  0
M  RAD  8   5   2   6   2   9   2  14   3  17   2  21   3  23   2  24   2
M  CHG  2   3   1  12  -1
M  RAD  5  25   2  27   2  28   2  29   2  30   2
M  END
>  <_TriposChargeType>  (1) 
GASTEIGER

>  <SuCOS_score>  (1) 
0.2322360736901465

>  <Volume_score>  (1) 
0.42626396725301474

>  <Feature_score>  (1) 
0.038208180127278266

$$$$
