DOCK.F10.P4kp0/L1001_ligand.pdbt
     RDKit          3D

 32 35  0  0  0  0  0  0  0  0999 V2000
   -4.2510   38.9980   21.4850 C   0  0  0  0  0  0  0  0  0  0  0  0
   -3.0810   39.7720   21.5330 C   0  0  0  0  0  0  0  0  0  0  0  0
   -2.0260   38.9910   21.2860 N   0  0  0  0  0  4  0  0  0  0  0  0
   -2.4880   37.7470   21.0830 C   0  0  0  0  0  0  0  0  0  0  0  0
   -1.8000   36.5540   20.7880 C   0  0  0  0  0  3  0  0  0  0  0  0
   -2.4630   35.3780   20.6150 C   0  0  0  0  0  3  0  0  0  0  0  0
   -3.8330   35.3290   20.7260 C   0  0  0  0  0  0  0  0  0  0  0  0
   -4.5320   34.1830   20.5630 F   0  0  0  0  0  0  0  0  0  0  0  0
   -4.4980   36.5110   21.0180 C   0  0  0  0  0  3  0  0  0  0  0  0
   -3.8490   37.7280   21.2000 C   0  0  0  0  0  0  0  0  0  0  0  0
   -3.0800   41.1980   21.8150 C   0  0  0  0  0  0  0  0  0  0  0  0
   -2.6090   42.0000   20.9990 O   0  0  0  0  0  1  0  0  0  0  0  0
   -3.6090   41.6510   23.0000 O   0  0  0  0  0  0  0  0  0  0  0  0
   -5.5850   39.5230   21.7040 C   0  0  0  0  0  2  0  0  0  0  0  0
   -7.5500   38.4620   20.7160 C   0  0  0  0  0  0  0  0  0  0  0  0
   -7.4000   39.1090   19.6430 O   0  0  0  0  0  0  0  0  0  0  0  0
   -6.6780   38.6240   21.8270 N   0  0  0  0  0  0  0  0  0  0  0  0
   -6.9410   37.8260   23.0190 C   0  0  0  0  0  1  0  0  0  0  0  0
   -8.5970   37.5720   20.7980 O   0  0  0  0  0  0  0  0  0  0  0  0
   -7.7990   35.5730   19.7960 C   0  0  0  0  0  1  0  0  0  0  0  0
   -8.9060   36.6000   19.8240 C   0  0  0  0  0  2  0  0  0  0  0  0
   -0.6400   39.3510   21.2330 C   0  0  0  0  0  2  0  0  0  0  0  0
    0.1060   38.9640   22.4520 C   0  0  0  0  0  0  0  0  0  0  0  0
   -0.4680   38.3480   23.5450 C   0  0  0  0  0  3  0  0  0  0  0  0
    0.2750   38.0010   24.6720 C   0  0  0  0  0  3  0  0  0  0  0  0
    1.6320   38.2980   24.6630 C   0  0  0  0  0  3  0  0  0  0  0  0
    2.2470   38.9140   23.5920 C   0  0  0  0  0  0  0  0  0  0  0  0
    3.5920   39.2000   23.6000 C   0  0  0  0  0  3  0  0  0  0  0  0
    4.1680   39.8130   22.5170 C   0  0  0  0  0  3  0  0  0  0  0  0
    3.4460   40.1590   21.4000 C   0  0  0  0  0  3  0  0  0  0  0  0
    2.0900   39.8580   21.4180 C   0  0  0  0  0  3  0  0  0  0  0  0
    1.4570   39.2440   22.4790 C   0  0  0  0  0  0  0  0  0  0  0  0
 16 15  2  0
 20 21  1  0
 21 19  1  0
  8  7  1  0
  6  7  2  0
  6  5  1  0
 15 19  1  0
 15 17  1  0
  7  9  1  0
  5  4  2  0
 12 11  1  0
  9 10  2  0
  4 10  1  0
  4  3  1  0
 10  1  1  0
 22  3  1  0
 22 23  1  0
  3  2  1  0
 30 31  1  0
 30 29  2  0
 31 32  2  0
  1  2  2  0
  1 14  1  0
  2 11  1  0
 14 17  1  0
 11 13  2  0
 17 18  1  0
 23 32  1  0
 23 24  2  0
 32 27  1  0
 29 28  1  0
 24 25  1  0
 27 28  2  0
 27 26  1  0
 26 25  2  0
M  RAD  8   5   2   6   2   9   2  14   3  18   2  20   2  21   3  22   3
M  CHG  2   3   1  12  -1
M  RAD  7  24   2  25   2  26   2  28   2  29   2  30   2  31   2
M  END
>  <_TriposChargeType>  (1) 
GASTEIGER

>  <SuCOS_score>  (1) 
0.3089247056700861

>  <Volume_score>  (1) 
0.4485400244254468

>  <Feature_score>  (1) 
0.16930938691472544

$$$$
