DOCK.F10.P4kp0/L1006_ligand.pdbt
     RDKit          3D

 42 46  0  0  0  0  0  0  0  0999 V2000
   -2.9480   38.2000   22.1700 C   0  0  0  0  0  3  0  0  0  0  0  0
   -0.5900   38.2780   23.2820 C   0  0  0  0  0  0  0  0  0  0  0  0
   -1.5620   38.5860   22.3190 C   0  0  0  0  0  0  0  0  0  0  0  0
   -0.8850   39.2670   21.3460 N   0  0  0  0  0  0  0  0  0  0  0  0
    0.3990   39.3890   21.6290 C   0  0  0  0  0  0  0  0  0  0  0  0
    1.4260   39.9940   20.8940 C   0  0  0  0  0  3  0  0  0  0  0  0
    2.7070   39.9880   21.3710 C   0  0  0  0  0  0  0  0  0  0  0  0
    3.8230   40.6300   20.6010 C   0  0  0  0  0  1  0  0  0  0  0  0
    2.9230   39.3720   22.5770 C   0  0  0  0  0  3  0  0  0  0  0  0
    1.9140   38.7780   23.3000 C   0  0  0  0  0  3  0  0  0  0  0  0
    0.6150   38.7750   22.8390 C   0  0  0  0  0  0  0  0  0  0  0  0
   -1.3180   39.6630   20.4580 H   0  0  0  0  0  0  0  0  0  0  0  0
   -0.8740   37.6560   24.5490 C   0  0  0  0  0  2  0  0  0  0  0  0
   -1.0560   36.1650   24.6260 C   0  0  1  0  0  0  0  0  0  0  0  0
   -0.4020   35.4870   23.4000 C   0  0  0  0  0  1  0  0  0  0  0  0
   -0.5070   35.5130   25.8450 C   0  0  0  0  0  1  0  0  0  0  0  0
   -4.8850   36.4780   25.0390 C   0  0  0  0  0  1  0  0  0  0  0  0
   -3.4080   36.7470   25.0800 C   0  0  0  0  0  0  0  0  0  0  0  0
   -2.9860   37.8100   25.6000 O   0  0  0  0  0  0  0  0  0  0  0  0
   -2.4890   35.7890   24.5250 N   0  0  0  0  0  0  0  0  0  0  0  0
   -2.8170   34.9170   24.0960 H   0  0  0  0  0  0  0  0  0  0  0  0
   -3.7980   39.4230   21.9120 C   0  0  0  0  0  0  0  0  0  0  0  0
   -3.6350   40.6030   21.4020 C   0  0  0  0  0  0  0  0  0  0  0  0
   -2.5240   41.2600   20.8490 O   0  0  0  0  0  0  0  0  0  0  0  0
   -5.0240   41.0300   21.6010 C   0  0  1  0  0  0  0  0  0  0  0  0
   -5.8470   41.2480   20.3680 C   0  0  0  0  0  1  0  0  0  0  0  0
   -5.1960   39.6970   22.1760 C   0  0  0  0  0  0  0  0  0  0  0  0
   -6.1510   39.0520   22.6860 O   0  0  0  0  0  0  0  0  0  0  0  0
   -2.5100   41.3240   19.8330 H   0  0  0  0  0  0  0  0  0  0  0  0
   -5.0560   42.1620   22.5790 C   0  0  0  0  0  0  0  0  0  0  0  0
   -4.7680   41.9820   23.9220 C   0  0  0  0  0  3  0  0  0  0  0  0
   -4.8010   43.0460   24.8120 C   0  0  0  0  0  3  0  0  0  0  0  0
   -5.1230   44.3140   24.3790 C   0  0  0  0  0  0  0  0  0  0  0  0
   -5.1620   45.4740   25.3390 C   0  0  0  0  0  1  0  0  0  0  0  0
   -5.4110   44.5220   23.0660 C   0  0  0  0  0  3  0  0  0  0  0  0
   -5.3720   43.4500   22.1980 C   0  0  0  0  0  3  0  0  0  0  0  0
   -3.3570   37.1090   21.3120 C   0  0  0  0  0  0  0  0  0  0  0  0
   -2.4630   36.5570   20.4430 C   0  0  0  0  0  3  0  0  0  0  0  0
   -2.8090   35.5250   19.5960 C   0  0  0  0  0  3  0  0  0  0  0  0
   -4.0910   34.9980   19.5900 C   0  0  0  0  0  3  0  0  0  0  0  0
   -5.0060   35.5380   20.4560 C   0  0  0  0  0  3  0  0  0  0  0  0
   -4.6490   36.5660   21.2960 C   0  0  0  0  0  3  0  0  0  0  0  0
 40 39  1  0
 40 41  2  0
 39 38  2  0
 29 24  1  0
 25 26  1  6
 38 37  1  0
 41 42  1  0
 12  4  1  0
  8  7  1  0
 24 23  1  0
  6  7  2  0
  6  5  1  0
 42 37  2  0
 37  1  1  0
  4  5  1  0
  4  3  1  0
  7  9  1  0
 23 25  1  0
 23 22  2  0
 25 27  1  0
 25 30  1  0
  5 11  2  0
 22  1  1  0
 22 27  1  0
  1  3  1  0
 27 28  2  0
 36 30  1  0
 36 35  2  0
  3  2  2  0
  9 10  2  0
 30 31  2  0
 11  2  1  0
 11 10  1  0
 35 33  1  0
  2 13  1  0
 14 15  1  6
 31 32  1  0
 21 20  1  0
 33 32  2  0
 33 34  1  0
 20 14  1  0
 20 18  1  0
 13 14  1  0
 14 16  1  0
 17 18  1  0
 18 19  2  0
M  RAD  8   1   2   6   2   8   2   9   2  10   2  13   3  15   2  16   2
M  RAD  8  17   2  26   2  31   2  32   2  34   2  35   2  36   2  38   2
M  RAD  4  39   2  40   2  41   2  42   2
M  END
>  <_TriposChargeType>  (1) 
GASTEIGER

>  <SuCOS_score>  (1) 
0.36028671962285586

>  <Volume_score>  (1) 
0.5500055377118175

>  <Feature_score>  (1) 
0.17056790153389417

$$$$
