DOCK.F10.P4kp0/L1009_ligand.pdbt
     RDKit          3D

 34 38  0  0  0  0  0  0  0  0999 V2000
   -2.2680   38.5430   22.7480 C   0  0  0  0  0  3  0  0  0  0  0  0
    0.2350   37.8000   24.6000 C   0  0  0  0  0  1  0  0  0  0  0  0
    0.2390   38.5730   23.3220 C   0  0  0  0  0  0  0  0  0  0  0  0
   -0.8360   38.9000   22.5230 C   0  0  0  0  0  0  0  0  0  0  0  0
   -0.3110   39.6000   21.5040 N   0  0  0  0  0  0  0  0  0  0  0  0
    1.0110   39.7290   21.6180 C   0  0  0  0  0  0  0  0  0  0  0  0
    2.0000   40.3490   20.8450 C   0  0  0  0  0  3  0  0  0  0  0  0
    3.3090   40.2840   21.2730 C   0  0  0  0  0  3  0  0  0  0  0  0
    3.6920   39.6380   22.4250 C   0  0  0  0  0  0  0  0  0  0  0  0
    5.0080   39.6100   22.7960 F   0  0  0  0  0  0  0  0  0  0  0  0
    2.7180   39.0300   23.1820 C   0  0  0  0  0  3  0  0  0  0  0  0
    1.3940   39.0820   22.7720 C   0  0  0  0  0  0  0  0  0  0  0  0
   -0.8390   40.0190   20.6880 H   0  0  0  0  0  0  0  0  0  0  0  0
   -3.1520   39.7250   22.8290 C   0  0  0  0  0  0  0  0  0  0  0  0
   -4.2510   39.9250   23.5200 C   0  0  0  0  0  0  0  0  0  0  0  0
   -4.8850   39.0130   24.3980 O   0  0  0  0  0  0  0  0  0  0  0  0
   -4.7820   41.2810   23.2690 C   0  0  0  0  0  3  0  0  0  0  0  0
   -3.8880   41.8880   22.3890 O   0  0  0  0  0  0  0  0  0  0  0  0
   -2.8950   40.9800   22.0890 C   0  0  0  0  0  0  0  0  0  0  0  0
   -1.9430   41.2220   21.3040 O   0  0  0  0  0  0  0  0  0  0  0  0
   -5.8600   38.8140   24.1630 H   0  0  0  0  0  0  0  0  0  0  0  0
   -4.8050   42.1230   24.5320 C   0  0  0  0  0  2  0  0  0  0  0  0
   -5.1160   43.5310   24.1770 C   0  0  0  0  0  0  0  0  0  0  0  0
   -4.3830   44.5670   24.7120 C   0  0  0  0  0  3  0  0  0  0  0  0
   -4.6470   45.8930   24.4030 C   0  0  0  0  0  3  0  0  0  0  0  0
   -5.6860   46.2000   23.5260 C   0  0  0  0  0  3  0  0  0  0  0  0
   -6.4070   45.1590   23.0000 C   0  0  0  0  0  3  0  0  0  0  0  0
   -6.1420   43.8420   23.3080 C   0  0  0  0  0  3  0  0  0  0  0  0
   -2.7370   37.5370   21.7790 C   0  0  0  0  0  0  0  0  0  0  0  0
   -4.0760   37.1580   21.6910 C   0  0  0  0  0  3  0  0  0  0  0  0
   -4.4470   36.2070   20.7670 C   0  0  0  0  0  3  0  0  0  0  0  0
   -3.5330   35.6180   19.9210 C   0  0  0  0  0  3  0  0  0  0  0  0
   -2.1930   35.9900   20.0010 C   0  0  0  0  0  3  0  0  0  0  0  0
   -1.8440   36.9300   20.9200 C   0  0  0  0  0  3  0  0  0  0  0  0
 32 33  2  0
 32 31  1  0
 33 34  1  0
 13  5  1  0
 31 30  2  0
  7  8  2  0
  7  6  1  0
 34 29  2  0
  8  9  1  0
 20 19  2  0
  5  6  1  0
  5  4  1  0
  6 12  2  0
 30 29  1  0
 29  1  1  0
 19 18  1  0
 19 14  1  0
 18 17  1  0
  9 10  1  0
  9 11  2  0
  4  1  1  0
  4  3  2  0
  1 14  1  0
 12 11  1  0
 12  3  1  0
 14 15  2  0
 27 28  2  0
 27 26  1  0
 17 15  1  0
 17 22  1  0
 28 23  1  0
  3  2  1  0
 15 16  1  0
 26 25  2  0
 21 16  1  0
 23 22  1  0
 23 24  2  0
 25 24  1  0
M  RAD  8   1   2   2   2   7   2   8   2  11   2  17   2  22   3  24   2
M  RAD  8  25   2  26   2  27   2  28   2  30   2  31   2  32   2  33   2
M  RAD  1  34   2
M  END
>  <_TriposChargeType>  (1) 
GASTEIGER

>  <SuCOS_score>  (1) 
0.31482581103545604

>  <Volume_score>  (1) 
0.5004971826317535

>  <Feature_score>  (1) 
0.12915443943915855

$$$$
