DOCK.F10.P4kp0/L1013_ligand.pdbt
     RDKit          3D

 27 30  0  0  0  0  0  0  0  0999 V2000
   -4.2550   39.0520   21.4970 N   0  0  0  0  0  4  0  0  0  0  0  0
   -3.0900   39.7500   21.6230 C   0  0  0  0  0  0  0  0  0  0  0  0
   -2.0020   38.9270   21.4390 C   0  0  0  0  0  0  0  0  0  0  0  0
   -2.5810   37.6620   21.1850 C   0  0  0  0  0  0  0  0  0  0  0  0
   -2.0250   36.4350   20.8980 C   0  0  0  0  0  3  0  0  0  0  0  0
   -2.8210   35.3320   20.6600 C   0  0  0  0  0  3  0  0  0  0  0  0
   -4.1860   35.4550   20.7080 C   0  0  0  0  0  3  0  0  0  0  0  0
   -4.7590   36.6700   20.9910 C   0  0  0  0  0  3  0  0  0  0  0  0
   -3.9300   37.7820   21.2290 C   0  0  0  0  0  0  0  0  0  0  0  0
   -3.0980   41.1900   21.8880 C   0  0  0  0  0  0  0  0  0  0  0  0
   -2.5680   41.9490   21.0000 O   0  0  0  0  0  1  0  0  0  0  0  0
   -3.6250   41.7920   23.0090 O   0  0  0  0  0  0  0  0  0  0  0  0
   -5.6310   39.5190   21.6220 C   0  0  0  0  0  2  0  0  0  0  0  0
   -6.1780   39.9630   20.2890 C   0  0  0  0  0  2  0  0  0  0  0  0
   -6.1990   42.2260   20.8020 C   0  0  0  0  0  1  0  0  0  0  0  0
   -5.8250   41.2300   19.9090 O   0  0  0  0  0  0  0  0  0  0  0  0
   -0.5620   39.2140   21.4050 C   0  0  0  0  0  2  0  0  0  0  0  0
    0.3220   38.9120   22.4810 C   0  0  0  0  0  0  0  0  0  0  0  0
   -0.1650   38.3550   23.6820 C   0  0  0  0  0  3  0  0  0  0  0  0
    0.5980   38.0950   24.7740 C   0  0  0  0  0  3  0  0  0  0  0  0
    1.9330   38.3740   24.7600 C   0  0  0  0  0  3  0  0  0  0  0  0
    2.4760   38.9180   23.6260 C   0  0  0  0  0  0  0  0  0  0  0  0
    3.8320   39.2160   23.5990 C   0  0  0  0  0  3  0  0  0  0  0  0
    4.4350   39.7740   22.4850 C   0  0  0  0  0  3  0  0  0  0  0  0
    3.6520   40.0260   21.4050 C   0  0  0  0  0  3  0  0  0  0  0  0
    2.3160   39.7280   21.4450 C   0  0  0  0  0  3  0  0  0  0  0  0
    1.6660   39.1750   22.5160 C   0  0  0  0  0  0  0  0  0  0  0  0
 16 14  1  0
 16 15  1  0
 14 13  1  0
  6  7  2  0
  6  5  1  0
  7  8  1  0
  5  4  2  0
  8  9  2  0
 11 10  1  0
  4  9  1  0
  4  3  1  0
  9  1  1  0
 17  3  1  0
 17 18  1  0
 25 26  1  0
 25 24  2  0
  3  2  2  0
 26 27  2  0
  1 13  1  0
  1  2  1  0
  2 10  1  0
 10 12  2  0
 18 27  1  0
 18 19  2  0
 24 23  1  0
 27 22  1  0
 23 22  2  0
 22 21  1  0
 19 20  1  0
 21 20  2  0
M  RAD  8   5   2   6   2   7   2   8   2  13   3  14   3  15   2  17   3
M  CHG  2   1   1  11  -1
M  RAD  7  19   2  20   2  21   2  23   2  24   2  25   2  26   2
M  END
>  <_TriposChargeType>  (1) 
GASTEIGER

>  <SuCOS_score>  (1) 
0.35723931499733536

>  <Volume_score>  (1) 
0.48237763783007404

>  <Feature_score>  (1) 
0.23210099216459668

$$$$
