DOCK.F10.P4kp0/L1015_ligand.pdbt
     RDKit          3D

 32 35  0  0  0  0  0  0  0  0999 V2000
   -4.2230   39.3670   22.9640 N   0  0  0  0  0  0  0  0  0  0  0  0
   -4.8380   38.9880   22.2110 H   0  0  0  0  0  0  0  0  0  0  0  0
   -4.4610   40.6670   23.4420 C   0  0  0  0  0  0  0  0  0  0  0  0
   -4.6000   41.0240   24.7690 C   0  0  0  0  0  3  0  0  0  0  0  0
   -4.8170   42.3170   25.2050 C   0  0  0  0  0  3  0  0  0  0  0  0
   -4.9030   43.3280   24.2860 C   0  0  0  0  0  0  0  0  0  0  0  0
   -4.7680   43.0040   22.9520 C   0  0  0  0  0  3  0  0  0  0  0  0
   -4.5560   41.7360   22.5350 C   0  0  0  0  0  0  0  0  0  0  0  0
   -5.1320   44.7240   24.6670 C   0  0  0  0  0  0  0  0  0  0  0  0
   -6.2650   45.4150   24.2760 C   0  0  0  0  0  3  0  0  0  0  0  0
   -6.4460   46.7370   24.6570 C   0  0  0  0  0  3  0  0  0  0  0  0
   -5.5190   47.3390   25.4020 N   0  0  0  0  0  0  0  0  0  0  0  0
   -4.4000   46.7070   25.8050 C   0  0  0  0  0  3  0  0  0  0  0  0
   -4.2150   45.4020   25.4340 C   0  0  0  0  0  3  0  0  0  0  0  0
   -4.3920   41.3790   20.8360 S   0  0  1  0  0  6  0  0  0  0  0  0
   -6.0000   41.0000   20.1860 C   0  0  0  0  0  1  0  0  0  0  0  0
   -3.8400   42.5770   20.1200 O   0  0  0  0  0  0  0  0  0  0  0  0
   -3.4250   40.2510   20.6000 O   0  0  0  0  0  0  0  0  0  0  0  0
   -2.9650   38.4040   23.5760 S   0  0  2  0  0  6  0  0  0  0  0  0
   -3.2210   36.9620   23.1610 O   0  0  0  0  0  0  0  0  0  0  0  0
   -2.9900   38.4000   25.0820 O   0  0  0  0  0  0  0  0  0  0  0  0
   -0.0200   37.6400   24.6260 C   0  0  0  0  0  1  0  0  0  0  0  0
   -0.1410   38.5850   23.4380 C   0  0  0  0  0  0  0  0  0  0  0  0
   -1.3920   38.9050   23.0000 C   0  0  0  0  0  0  0  0  0  0  0  0
   -1.1060   39.9510   21.6990 S   0  0  0  0  0  0  0  0  0  0  0  0
    0.6120   39.9670   21.7330 C   0  0  0  0  0  0  0  0  0  0  0  0
    1.5790   40.6120   20.9560 C   0  0  0  0  0  3  0  0  0  0  0  0
    2.9210   40.4360   21.2170 C   0  0  0  0  0  3  0  0  0  0  0  0
    3.2100   39.6010   22.2730 C   0  0  0  0  0  0  0  0  0  0  0  0
    4.5330   39.4140   22.5480 F   0  0  0  0  0  0  0  0  0  0  0  0
    2.2800   38.9630   23.0420 C   0  0  0  0  0  3  0  0  0  0  0  0
    0.9010   39.1370   22.7800 C   0  0  0  0  0  0  0  0  0  0  0  0
 17 15  2  0
 15 16  1  6
 18 15  2  0
 15  8  1  0
 27 28  2  0
 27 26  1  0
 28 29  1  0
 25 26  1  0
 25 24  1  0
 26 32  2  0
  2  1  1  0
 29 30  1  0
 29 31  2  0
  8  7  2  0
  8  3  1  0
 32 31  1  0
 32 23  1  0
  7  6  1  0
  1  3  1  0
 19  1  1  6
 24 23  2  0
 24 19  1  0
 20 19  2  0
 23 22  1  0
  3  4  2  0
 19 21  2  0
 10 11  2  0
 10  9  1  0
  6  9  1  0
  6  5  2  0
 11 12  1  0
  9 14  2  0
  4  5  1  0
 12 13  2  0
 14 13  1  0
M  RAD  8   4   2   5   2   7   2  10   2  11   2  13   2  14   2  16   2
M  RAD  4  22   2  27   2  28   2  31   2
M  END
>  <_TriposChargeType>  (1) 
GASTEIGER

>  <SuCOS_score>  (1) 
0.30175671550283584

>  <Volume_score>  (1) 
0.4432659374654734

>  <Feature_score>  (1) 
0.1602474935401983

$$$$
