DOCK.F10.P4kp0/L1017_ligand.pdbt
     RDKit          3D

 31 34  0  0  0  0  0  0  0  0999 V2000
   -4.1090   38.9720   21.4030 C   0  0  0  0  0  0  0  0  0  0  0  0
   -3.0040   39.7730   21.5660 C   0  0  0  0  0  0  0  0  0  0  0  0
   -1.8730   39.0830   21.4840 N   0  0  0  0  0  4  0  0  0  0  0  0
   -2.1970   37.8080   21.2690 C   0  0  0  0  0  0  0  0  0  0  0  0
   -1.4790   36.6260   21.1090 C   0  0  0  0  0  3  0  0  0  0  0  0
   -2.0220   35.3930   20.9000 C   0  0  0  0  0  3  0  0  0  0  0  0
   -3.4180   35.2900   20.8440 C   0  0  0  0  0  0  0  0  0  0  0  0
   -3.9930   34.0960   20.6640 F   0  0  0  0  0  0  0  0  0  0  0  0
   -4.1680   36.4430   20.9910 C   0  0  0  0  0  3  0  0  0  0  0  0
   -3.6020   37.6820   21.2000 C   0  0  0  0  0  0  0  0  0  0  0  0
   -3.1540   41.2580   21.7470 C   0  0  0  0  0  0  0  0  0  0  0  0
   -2.8250   42.0000   20.8000 O   0  0  0  0  0  1  0  0  0  0  0  0
   -3.6130   41.8600   22.8890 O   0  0  0  0  0  0  0  0  0  0  0  0
   -5.4970   39.2480   21.7340 C   0  0  0  0  0  2  0  0  0  0  0  0
   -6.3900   38.2080   22.0950 N   0  0  0  0  0  0  0  0  0  0  0  0
   -6.8200   38.1230   22.9910 H   0  0  0  0  0  0  0  0  0  0  0  0
   -7.5990   36.5380   20.1110 C   0  0  0  0  0  1  0  0  0  0  0  0
   -7.5690   38.1660   20.8000 S   0  0  2  0  0  6  0  0  0  0  0  0
   -7.3410   39.2010   19.8000 O   0  0  0  0  0  0  0  0  0  0  0  0
   -8.9580   38.3980   21.4490 O   0  0  0  0  0  0  0  0  0  0  0  0
   -0.5400   39.6280   21.4640 C   0  0  0  0  0  2  0  0  0  0  0  0
    0.2980   39.1690   22.5760 C   0  0  0  0  0  0  0  0  0  0  0  0
   -0.1850   38.5860   23.6920 C   0  0  0  0  0  3  0  0  0  0  0  0
    0.6300   38.2000   24.7250 C   0  0  0  0  0  3  0  0  0  0  0  0
    1.9960   38.4010   24.6540 C   0  0  0  0  0  3  0  0  0  0  0  0
    2.4980   39.0120   23.4900 C   0  0  0  0  0  0  0  0  0  0  0  0
    3.8590   39.2140   23.4000 C   0  0  0  0  0  3  0  0  0  0  0  0
    4.3800   39.7990   22.2730 C   0  0  0  0  0  3  0  0  0  0  0  0
    3.5820   40.1870   21.2310 C   0  0  0  0  0  3  0  0  0  0  0  0
    2.2520   39.9680   21.3490 C   0  0  0  0  0  3  0  0  0  0  0  0
    1.6550   39.3760   22.4910 C   0  0  0  0  0  0  0  0  0  0  0  0
 19 18  2  0
 18 17  1  6
  8  7  1  0
 18 20  2  0
 18 15  1  0
 12 11  1  0
  7  6  2  0
  7  9  1  0
  6  5  1  0
  9 10  2  0
  5  4  2  0
 10  4  1  0
 10  1  1  0
 29 30  1  0
 29 28  2  0
  4  3  1  0
 30 31  2  0
  1  2  2  0
  1 14  1  0
 21  3  1  0
 21 22  1  0
  3  2  1  0
  2 11  1  0
 14 15  1  0
 11 13  2  0
 15 16  1  0
 28 27  1  0
 31 22  1  0
 31 26  1  0
 22 23  2  0
 27 26  2  0
 26 25  1  0
 23 24  1  0
 25 24  2  0
M  RAD  8   5   2   6   2   9   2  14   3  17   2  21   3  23   2  24   2
M  CHG  2   3   1  12  -1
M  RAD  5  25   2  27   2  28   2  29   2  30   2
M  END
>  <_TriposChargeType>  (1) 
GASTEIGER

>  <SuCOS_score>  (1) 
0.31355328396000337

>  <Volume_score>  (1) 
0.45486686553971933

>  <Feature_score>  (1) 
0.17223970238028743

$$$$
