DOCK.F10.P4k69/L1007_ligand.pdbt
     RDKit          3D

 31 35  0  0  0  0  0  0  0  0999 V2000
   -2.5480   38.7180   22.4800 C   0  0  0  0  0  3  0  0  0  0  0  0
   -1.1090   38.9520   22.5570 C   0  0  0  0  0  0  0  0  0  0  0  0
   -0.4810   38.6000   23.7650 C   0  0  0  0  0  3  0  0  0  0  0  0
    0.8600   38.7620   23.9890 C   0  0  0  0  0  3  0  0  0  0  0  0
    1.6400   39.2950   22.9880 C   0  0  0  0  0  0  0  0  0  0  0  0
    3.0060   39.4660   23.1980 C   0  0  0  0  0  3  0  0  0  0  0  0
    3.7790   39.9990   22.1970 C   0  0  0  0  0  3  0  0  0  0  0  0
    3.1660   40.3450   21.0140 C   0  0  0  0  0  3  0  0  0  0  0  0
    1.8240   40.1790   20.8010 C   0  0  0  0  0  3  0  0  0  0  0  0
    1.0220   39.6410   21.8000 C   0  0  0  0  0  0  0  0  0  0  0  0
   -0.3290   39.4770   21.5790 C   0  0  0  0  0  3  0  0  0  0  0  0
   -5.3960   41.7560   20.8010 C   0  0  0  0  0  1  0  0  0  0  0  0
   -4.5760   41.5630   22.0870 C   0  0  2  0  0  0  0  0  0  0  0  0
   -3.1970   41.2730   21.8000 C   0  0  0  0  0  0  0  0  0  0  0  0
   -2.2560   41.9310   21.3170 O   0  0  0  0  0  0  0  0  0  0  0  0
   -3.3870   39.9420   22.2960 C   0  0  0  0  0  0  0  0  0  0  0  0
   -4.6470   40.2060   22.5580 C   0  0  0  0  0  0  0  0  0  0  0  0
   -5.7090   39.4630   23.1000 O   0  0  0  0  0  0  0  0  0  0  0  0
   -6.0490   38.6900   22.5390 H   0  0  0  0  0  0  0  0  0  0  0  0
   -4.8580   42.6320   23.0740 C   0  0  0  0  0  0  0  0  0  0  0  0
   -5.1990   43.8770   22.5990 C   0  0  0  0  0  3  0  0  0  0  0  0
   -5.4780   44.9350   23.4460 C   0  0  0  0  0  3  0  0  0  0  0  0
   -5.4190   44.7620   24.8060 C   0  0  0  0  0  3  0  0  0  0  0  0
   -5.0760   43.5120   25.2790 C   0  0  0  0  0  3  0  0  0  0  0  0
   -4.7990   42.4610   24.4230 C   0  0  0  0  0  3  0  0  0  0  0  0
   -2.8280   37.6480   21.5080 C   0  0  0  0  0  0  0  0  0  0  0  0
   -4.0850   37.0950   21.3960 C   0  0  0  0  0  3  0  0  0  0  0  0
   -4.3850   36.0900   20.5170 C   0  0  0  0  0  3  0  0  0  0  0  0
   -3.3980   35.6000   19.7000 C   0  0  0  0  0  3  0  0  0  0  0  0
   -2.1340   36.1440   19.8000 C   0  0  0  0  0  3  0  0  0  0  0  0
   -1.8250   37.1600   20.6880 C   0  0  0  0  0  3  0  0  0  0  0  0
 29 30  2  0
 29 28  1  0
 30 31  1  0
 28 27  2  0
 31 26  2  0
  9  8  2  0
  9 10  1  0
 13 12  1  6
  8  7  1  0
 15 14  2  0
 27 26  1  0
 26  1  1  0
 11 10  2  0
 11  2  1  0
 10  5  1  0
 14 13  1  0
 14 16  1  0
 13 17  1  0
 13 20  1  0
  7  6  2  0
 16  1  1  0
 16 17  2  0
  1  2  1  0
 19 18  1  0
  2  3  2  0
 17 18  1  0
 21 20  2  0
 21 22  1  0
  5  6  1  0
  5  4  2  0
 20 25  1  0
 22 23  2  0
  3  4  1  0
 25 24  2  0
 23 24  1  0
M  RAD  8   1   2   3   2   4   2   6   2   7   2   8   2   9   2  11   2
M  RAD  8  12   2  21   2  22   2  23   2  24   2  25   2  27   2  28   2
M  RAD  3  29   2  30   2  31   2
M  END
>  <_TriposChargeType>  (1) 
GASTEIGER

>  <SuCOS_score>  (1) 
0.3751618569605531

>  <Volume_score>  (1) 
0.5432548889625456

>  <Feature_score>  (1) 
0.20706882495856058

$$$$
