DOCK.F36.P5yjm/L1005_ligand.pdbt
     RDKit          3D

 31 34  0  0  0  0  0  0  0  0999 V2000
   -1.2780   36.8120   22.7910 C   0  0  0  0  0  0  0  0  0  0  0  0
   -1.7690   37.0790   21.4940 C   0  0  0  0  0  0  0  0  0  0  0  0
   -1.8100   35.9600   20.7850 N   0  0  0  0  0  4  0  0  0  0  0  0
   -1.3430   34.9290   21.5930 C   0  0  0  0  0  0  0  0  0  0  0  0
   -1.1830   33.6020   21.2540 C   0  0  0  0  0  3  0  0  0  0  0  0
   -0.6530   32.7480   22.2300 C   0  0  0  0  0  3  0  0  0  0  0  0
   -0.3180   33.2490   23.4650 C   0  0  0  0  0  0  0  0  0  0  0  0
    0.2010   32.4240   24.4370 F   0  0  0  0  0  0  0  0  0  0  0  0
   -0.4960   34.5900   23.7600 C   0  0  0  0  0  3  0  0  0  0  0  0
   -1.0190   35.4650   22.8220 C   0  0  0  0  0  0  0  0  0  0  0  0
   -2.1180   38.4440   21.0980 C   0  0  0  0  0  0  0  0  0  0  0  0
   -3.1410   39.0460   21.5750 O   0  0  0  0  0  1  0  0  0  0  0  0
   -1.4010   39.2000   20.2000 O   0  0  0  0  0  0  0  0  0  0  0  0
   -1.0850   37.8310   23.8280 C   0  0  0  0  0  2  0  0  0  0  0  0
    1.1520   38.7760   23.1610 C   0  0  0  0  0  0  0  0  0  0  0  0
    1.6010   37.6000   23.0000 O   0  0  0  0  0  0  0  0  0  0  0  0
   -0.1990   38.9080   23.5800 N   0  0  0  0  0  0  0  0  0  0  0  0
   -0.5240   39.9250   23.6970 H   0  0  0  0  0  0  0  0  0  0  0  0
    2.1950   40.4010   21.6420 C   0  0  0  0  0  1  0  0  0  0  0  0
    1.9690   39.8800   22.9320 O   0  0  0  0  0  0  0  0  0  0  0  0
   -2.1980   35.7600   19.4000 C   0  0  0  0  0  2  0  0  0  0  0  0
   -3.2110   34.7310   19.2740 C   0  0  0  0  0  0  0  0  0  0  0  0
   -4.2350   34.6270   20.2040 C   0  0  0  0  0  3  0  0  0  0  0  0
   -5.2960   33.7540   20.1110 C   0  0  0  0  0  3  0  0  0  0  0  0
   -5.3180   32.9330   19.0030 C   0  0  0  0  0  3  0  0  0  0  0  0
   -4.3410   32.9870   18.0610 C   0  0  0  0  0  0  0  0  0  0  0  0
   -4.4000   32.1090   17.0150 C   0  0  0  0  0  3  0  0  0  0  0  0
   -3.4020   32.0830   16.0480 C   0  0  0  0  0  3  0  0  0  0  0  0
   -2.3430   32.9760   16.1780 C   0  0  0  0  0  3  0  0  0  0  0  0
   -2.2780   33.8650   17.2300 C   0  0  0  0  0  3  0  0  0  0  0  0
   -3.2660   33.8900   18.1810 C   0  0  0  0  0  0  0  0  0  0  0  0
 28 29  2  0
 28 27  1  0
 29 30  1  0
 27 26  2  0
 30 31  2  0
 26 31  1  0
 26 25  1  0
 31 22  1  0
 25 24  2  0
 22 21  1  0
 22 23  2  0
 21  3  1  0
 24 23  1  0
 13 11  2  0
  3  2  1  0
  3  4  1  0
 11  2  1  0
 11 12  1  0
  5  4  2  0
  5  6  1  0
  2  1  2  0
  4 10  1  0
 19 20  1  0
  6  7  2  0
  1 10  1  0
  1 14  1  0
 10  9  2  0
 20 15  1  0
 16 15  2  0
 15 17  1  0
  7  9  1  0
  7  8  1  0
 17 18  1  0
 17 14  1  0
M  RAD  8   5   2   6   2   9   2  14   3  19   2  21   3  23   2  24   2
M  CHG  2   3   1  12  -1
M  RAD  5  25   2  27   2  28   2  29   2  30   2
M  END
>  <_TriposChargeType>  (1) 
GASTEIGER

>  <SuCOS_score>  (1) 
0.1596885681957285

>  <Volume_score>  (1) 
0.30858725761772854

>  <Feature_score>  (1) 
0.010789878773728464

$$$$
