DOCK.F36.P5yjm/L1004_ligand.pdbt
     RDKit          3D

 33 36  0  0  0  0  0  0  0  0999 V2000
   -5.4420   41.8030   22.5070 C   0  0  0  0  0  3  0  0  0  0  0  0
   -6.1040   43.2360   24.5440 C   0  0  0  0  0  0  0  0  0  0  0  0
   -5.8190   42.0480   23.8830 C   0  0  0  0  0  0  0  0  0  0  0  0
   -6.0150   41.0400   24.7800 N   0  0  0  0  0  0  0  0  0  0  0  0
   -6.4080   41.5070   25.9710 C   0  0  0  0  0  0  0  0  0  0  0  0
   -6.7210   40.8950   27.1700 C   0  0  0  0  0  3  0  0  0  0  0  0
   -7.1030   41.6300   28.2740 C   0  0  0  0  0  3  0  0  0  0  0  0
   -7.1650   43.0020   28.1560 C   0  0  0  0  0  0  0  0  0  0  0  0
   -7.5420   43.7450   29.2250 F   0  0  0  0  0  0  0  0  0  0  0  0
   -6.8450   43.6000   26.9390 C   0  0  0  0  0  3  0  0  0  0  0  0
   -6.4640   42.8980   25.8210 C   0  0  0  0  0  0  0  0  0  0  0  0
   -5.8860   39.9960   24.6100 H   0  0  0  0  0  0  0  0  0  0  0  0
   -7.2000   45.3850   23.8130 C   0  0  0  0  0  1  0  0  0  0  0  0
   -5.9580   44.5400   23.9310 C   0  0  0  0  0  3  0  0  0  0  0  0
   -5.0000   45.4090   24.8000 C   0  0  0  0  0  1  0  0  0  0  0  0
   -4.2250   40.9040   22.3700 C   0  0  0  0  0  0  0  0  0  0  0  0
   -3.0660   41.1620   21.8020 C   0  0  0  0  0  0  0  0  0  0  0  0
   -2.7770   42.4000   21.2000 O   0  0  0  0  0  0  0  0  0  0  0  0
   -2.1380   40.0100   21.8810 C   0  0  0  0  0  3  0  0  0  0  0  0
   -2.8820   38.9900   22.5410 N   0  0  0  0  0  0  0  0  0  0  0  0
   -4.1510   39.5290   22.8540 C   0  0  0  0  0  0  0  0  0  0  0  0
   -5.1220   38.9610   23.4590 O   0  0  0  0  0  0  0  0  0  0  0  0
   -1.9660   42.9320   21.5080 H   0  0  0  0  0  0  0  0  0  0  0  0
   -2.5370   38.0310   22.7480 H   0  0  0  0  0  0  0  0  0  0  0  0
   -0.8510   40.3580   22.5900 C   0  0  0  0  0  3  0  0  0  0  0  0
   -0.4980   39.3020   23.6200 C   0  0  0  0  0  1  0  0  0  0  0  0
    0.2560   40.4000   21.5700 C   0  0  0  0  0  1  0  0  0  0  0  0
   -6.4900   41.4600   21.5460 C   0  0  0  0  0  0  0  0  0  0  0  0
   -7.0450   40.1980   21.4360 C   0  0  0  0  0  3  0  0  0  0  0  0
   -8.0500   39.9180   20.5310 C   0  0  0  0  0  3  0  0  0  0  0  0
   -8.5470   40.8900   19.6910 C   0  0  0  0  0  3  0  0  0  0  0  0
   -8.0020   42.1480   19.7920 C   0  0  0  0  0  3  0  0  0  0  0  0
   -7.0060   42.4120   20.6950 C   0  0  0  0  0  3  0  0  0  0  0  0
 31 32  2  0
 31 30  1  0
 32 33  1  0
 30 29  2  0
 33 28  2  0
 18 23  1  0
 18 17  1  0
 29 28  1  0
 28  1  1  0
 27 25  1  0
 17 19  1  0
 17 16  2  0
 19 20  1  0
 19 25  1  0
 16  1  1  0
 16 21  1  0
  1  3  1  0
 20 24  1  0
 20 21  1  0
 25 26  1  0
 21 22  2  0
 13 14  1  0
  3  2  2  0
  3  4  1  0
 14  2  1  0
 14 15  1  0
  2 11  1  0
 12  4  1  0
  4  5  1  0
 11  5  2  0
 11 10  1  0
  5  6  1  0
 10  8  2  0
  6  7  2  0
  8  7  1  0
  8  9  1  0
M  RAD  8   1   2   6   2   7   2  10   2  13   2  14   2  15   2  19   2
M  RAD  8  25   2  26   2  27   2  29   2  30   2  31   2  32   2  33   2
M  END
>  <_TriposChargeType>  (1) 
GASTEIGER

>  <SuCOS_score>  (1) 
0.35858111837882123

>  <Volume_score>  (1) 
0.42744881018262315

>  <Feature_score>  (1) 
0.2897134265750193

$$$$
