DOCK.F36.P5yjm/L1001_ligand.pdbt
     RDKit          3D

 32 35  0  0  0  0  0  0  0  0999 V2000
   -1.2490   36.9080   22.8170 C   0  0  0  0  0  0  0  0  0  0  0  0
   -1.7560   37.1380   21.5290 C   0  0  0  0  0  0  0  0  0  0  0  0
   -1.7580   35.9910   20.8440 N   0  0  0  0  0  4  0  0  0  0  0  0
   -1.2680   35.0410   21.6560 C   0  0  0  0  0  0  0  0  0  0  0  0
   -1.0580   33.6670   21.4300 C   0  0  0  0  0  3  0  0  0  0  0  0
   -0.5440   32.8600   22.3980 C   0  0  0  0  0  3  0  0  0  0  0  0
   -0.2140   33.3760   23.6300 C   0  0  0  0  0  0  0  0  0  0  0  0
    0.2990   32.6110   24.6210 F   0  0  0  0  0  0  0  0  0  0  0  0
   -0.4260   34.7310   23.8390 C   0  0  0  0  0  3  0  0  0  0  0  0
   -0.9490   35.5800   22.8700 C   0  0  0  0  0  0  0  0  0  0  0  0
   -2.1950   38.4460   21.0680 C   0  0  0  0  0  0  0  0  0  0  0  0
   -3.2730   38.9180   21.4500 O   0  0  0  0  0  1  0  0  0  0  0  0
   -1.4000   39.1560   20.2000 O   0  0  0  0  0  0  0  0  0  0  0  0
   -1.1060   37.9340   23.8330 C   0  0  0  0  0  2  0  0  0  0  0  0
    1.1930   38.2660   24.5880 C   0  0  0  0  0  0  0  0  0  0  0  0
    1.1710   37.1820   25.2340 O   0  0  0  0  0  0  0  0  0  0  0  0
    0.0670   38.7340   23.8560 N   0  0  0  0  0  0  0  0  0  0  0  0
    0.1990   40.0000   23.1440 C   0  0  0  0  0  1  0  0  0  0  0  0
    2.3520   39.0070   24.6000 O   0  0  0  0  0  0  0  0  0  0  0  0
    4.6840   39.2000   24.2000 C   0  0  0  0  0  1  0  0  0  0  0  0
    3.3230   39.0000   23.5770 C   0  0  0  0  0  2  0  0  0  0  0  0
   -2.1880   35.7550   19.4990 C   0  0  0  0  0  2  0  0  0  0  0  0
   -3.3370   34.8260   19.4120 C   0  0  0  0  0  0  0  0  0  0  0  0
   -4.3700   34.7880   20.3260 C   0  0  0  0  0  3  0  0  0  0  0  0
   -5.4330   33.8950   20.2030 C   0  0  0  0  0  3  0  0  0  0  0  0
   -5.4230   33.0290   19.1170 C   0  0  0  0  0  3  0  0  0  0  0  0
   -4.4090   33.0310   18.1800 C   0  0  0  0  0  0  0  0  0  0  0  0
   -4.4150   32.1670   17.1110 C   0  0  0  0  0  3  0  0  0  0  0  0
   -3.3910   32.1990   16.1990 C   0  0  0  0  0  3  0  0  0  0  0  0
   -2.3380   33.0760   16.3090 C   0  0  0  0  0  3  0  0  0  0  0  0
   -2.3580   33.9370   17.3980 C   0  0  0  0  0  3  0  0  0  0  0  0
   -3.3600   33.9500   18.3460 C   0  0  0  0  0  0  0  0  0  0  0  0
 29 30  2  0
 29 28  1  0
 30 31  1  0
 28 27  2  0
 31 32  2  0
 27 32  1  0
 27 26  1  0
 32 23  1  0
 26 25  2  0
 23 22  1  0
 23 24  2  0
 22  3  1  0
 13 11  2  0
 25 24  1  0
  3  2  1  0
  3  4  1  0
 11 12  1  0
 11  2  1  0
  5  4  2  0
  5  6  1  0
  2  1  2  0
  4 10  1  0
  6  7  2  0
  1 10  1  0
  1 14  1  0
 10  9  2  0
 18 17  1  0
 21 20  1  0
 21 19  1  0
  7  9  1  0
  7  8  1  0
 14 17  1  0
 17 15  1  0
 15 19  1  0
 15 16  2  0
M  RAD  8   5   2   6   2   9   2  14   3  18   2  20   2  21   3  22   3
M  CHG  2   3   1  12  -1
M  RAD  7  24   2  25   2  26   2  28   2  29   2  30   2  31   2
M  END
>  <_TriposChargeType>  (1) 
GASTEIGER

>  <SuCOS_score>  (1) 
0.18082365220130678

>  <Volume_score>  (1) 
0.3500166094563172

>  <Feature_score>  (1) 
0.01163069494629638

$$$$
