DOCK.F36.P5yjm/L1017_ligand.pdbt
     RDKit          3D

 31 34  0  0  0  0  0  0  0  0999 V2000
   -0.8530   36.3260   23.0920 C   0  0  0  0  0  0  0  0  0  0  0  0
   -1.2100   36.7220   21.8240 C   0  0  0  0  0  0  0  0  0  0  0  0
   -1.4640   35.6870   21.0330 N   0  0  0  0  0  4  0  0  0  0  0  0
   -1.2800   34.5790   21.7520 C   0  0  0  0  0  0  0  0  0  0  0  0
   -1.3740   33.2140   21.4930 C   0  0  0  0  0  3  0  0  0  0  0  0
   -1.1280   32.2210   22.3940 C   0  0  0  0  0  3  0  0  0  0  0  0
   -0.7450   32.5880   23.6910 C   0  0  0  0  0  0  0  0  0  0  0  0
   -0.4720   31.6440   24.5990 F   0  0  0  0  0  0  0  0  0  0  0  0
   -0.6470   33.9340   23.9900 C   0  0  0  0  0  3  0  0  0  0  0  0
   -0.9000   34.9260   23.0670 C   0  0  0  0  0  0  0  0  0  0  0  0
   -1.3330   38.1810   21.4840 C   0  0  0  0  0  0  0  0  0  0  0  0
   -2.2970   38.8140   21.9580 O   0  0  0  0  0  1  0  0  0  0  0  0
   -0.4680   38.8650   20.6710 O   0  0  0  0  0  0  0  0  0  0  0  0
   -0.1980   37.0910   24.1390 C   0  0  0  0  0  2  0  0  0  0  0  0
    1.2000   37.0000   24.3550 N   0  0  0  0  0  0  0  0  0  0  0  0
    1.7590   36.2160   24.0960 H   0  0  0  0  0  0  0  0  0  0  0  0
    0.6950   39.8000   24.0460 C   0  0  0  0  0  1  0  0  0  0  0  0
    1.8450   38.4980   23.7150 S   0  0  2  0  0  6  0  0  0  0  0  0
    2.2000   38.4000   22.3060 O   0  0  0  0  0  0  0  0  0  0  0  0
    3.1250   38.8200   24.5290 O   0  0  0  0  0  0  0  0  0  0  0  0
   -2.0000   35.7440   19.6970 C   0  0  0  0  0  2  0  0  0  0  0  0
   -3.1810   34.9000   19.5030 C   0  0  0  0  0  0  0  0  0  0  0  0
   -4.2380   34.8770   20.3410 C   0  0  0  0  0  3  0  0  0  0  0  0
   -5.3110   34.0480   20.1400 C   0  0  0  0  0  3  0  0  0  0  0  0
   -5.3440   33.1920   19.0550 C   0  0  0  0  0  3  0  0  0  0  0  0
   -4.2400   33.2140   18.1830 C   0  0  0  0  0  0  0  0  0  0  0  0
   -4.2590   32.3710   17.0930 C   0  0  0  0  0  3  0  0  0  0  0  0
   -3.2000   32.3760   16.2180 C   0  0  0  0  0  3  0  0  0  0  0  0
   -2.1220   33.2000   16.4000 C   0  0  0  0  0  3  0  0  0  0  0  0
   -2.1390   34.0190   17.4770 C   0  0  0  0  0  3  0  0  0  0  0  0
   -3.1990   34.0530   18.4190 C   0  0  0  0  0  0  0  0  0  0  0  0
 28 29  2  0
 28 27  1  0
 29 30  1  0
 27 26  2  0
 30 31  2  0
 26 31  1  0
 26 25  1  0
 31 22  1  0
 25 24  2  0
 22 21  1  0
 22 23  2  0
 21  3  1  0
 24 23  1  0
 13 11  2  0
  3  4  1  0
  3  2  1  0
 11  2  1  0
 11 12  1  0
  5  4  2  0
  5  6  1  0
  4 10  1  0
  2  1  2  0
 19 18  2  0
  6  7  2  0
 10  1  1  0
 10  9  2  0
  1 14  1  0
  7  9  1  0
  7  8  1  0
 18 17  1  6
 18 15  1  0
 18 20  2  0
 16 15  1  0
 14 15  1  0
M  RAD  8   5   2   6   2   9   2  14   3  17   2  21   3  23   2  24   2
M  CHG  2   3   1  12  -1
M  RAD  5  25   2  27   2  28   2  29   2  30   2
M  END
>  <_TriposChargeType>  (1) 
GASTEIGER

>  <SuCOS_score>  (1) 
0.1595666560298322

>  <Volume_score>  (1) 
0.31209909312099093

>  <Feature_score>  (1) 
0.007034218938673472

$$$$
