DOCK.F36.P5yjm/L1015_ligand.pdbt
     RDKit          3D

 32 35  0  0  0  0  0  0  0  0999 V2000
   -1.9500   36.6850   23.4220 N   0  0  0  0  0  0  0  0  0  0  0  0
   -2.0850   36.0950   24.2710 H   0  0  0  0  0  0  0  0  0  0  0  0
   -2.0810   36.0880   22.1560 C   0  0  0  0  0  0  0  0  0  0  0  0
   -2.6550   36.6730   21.0450 C   0  0  0  0  0  3  0  0  0  0  0  0
   -2.7520   36.0620   19.8100 C   0  0  0  0  0  3  0  0  0  0  0  0
   -2.2550   34.7970   19.6480 C   0  0  0  0  0  0  0  0  0  0  0  0
   -1.6740   34.1850   20.7390 C   0  0  0  0  0  3  0  0  0  0  0  0
   -1.5840   34.7910   21.9440 C   0  0  0  0  0  0  0  0  0  0  0  0
   -2.3180   34.0800   18.3710 C   0  0  0  0  0  0  0  0  0  0  0  0
   -1.1990   33.8850   17.5840 C   0  0  0  0  0  3  0  0  0  0  0  0
   -1.3000   33.2000   16.3800 C   0  0  0  0  0  3  0  0  0  0  0  0
   -2.4840   32.7330   15.9870 N   0  0  0  0  0  0  0  0  0  0  0  0
   -3.6010   32.8990   16.7210 C   0  0  0  0  0  3  0  0  0  0  0  0
   -3.5090   33.5730   17.9090 C   0  0  0  0  0  3  0  0  0  0  0  0
   -0.8400   33.9730   23.2930 S   0  0  1  0  0  6  0  0  0  0  0  0
    0.2000   32.6820   22.6590 C   0  0  0  0  0  1  0  0  0  0  0  0
   -0.0020   34.9450   24.0710 O   0  0  0  0  0  0  0  0  0  0  0  0
   -1.8700   33.4310   24.2450 O   0  0  0  0  0  0  0  0  0  0  0  0
   -1.5790   38.3320   23.6000 S   0  0  2  0  0  6  0  0  0  0  0  0
   -1.7560   38.7070   25.0650 O   0  0  0  0  0  0  0  0  0  0  0  0
   -2.5690   39.1800   22.8460 O   0  0  0  0  0  0  0  0  0  0  0  0
    1.2040   38.1190   25.2040 C   0  0  0  0  0  1  0  0  0  0  0  0
    1.2340   38.6260   23.7690 C   0  0  0  0  0  0  0  0  0  0  0  0
    0.0500   38.7140   23.0960 C   0  0  0  0  0  0  0  0  0  0  0  0
    0.4990   39.3040   21.5730 S   0  0  0  0  0  0  0  0  0  0  0  0
    2.1940   39.4320   21.8160 C   0  0  0  0  0  0  0  0  0  0  0  0
    3.2500   39.8510   21.0000 C   0  0  0  0  0  3  0  0  0  0  0  0
    4.5460   39.8480   21.4710 C   0  0  0  0  0  3  0  0  0  0  0  0
    4.6980   39.4120   22.7690 C   0  0  0  0  0  0  0  0  0  0  0  0
    5.9720   39.4020   23.2550 F   0  0  0  0  0  0  0  0  0  0  0  0
    3.6800   39.0000   23.5800 C   0  0  0  0  0  3  0  0  0  0  0  0
    2.3480   38.9990   23.1040 C   0  0  0  0  0  0  0  0  0  0  0  0
 12 11  1  0
 12 13  2  0
 11 10  2  0
 13 14  1  0
 10  9  1  0
 14  9  2  0
  9  6  1  0
  6  5  1  0
  6  7  2  0
  5  4  2  0
  7  8  1  0
 27 28  2  0
 27 26  1  0
  4  3  1  0
 28 29  1  0
 25 26  1  0
 25 24  1  0
 26 32  2  0
  8  3  2  0
  8 15  1  0
  3  1  1  0
 15 16  1  6
 29 30  1  0
 29 31  2  0
 21 19  2  0
 24 19  1  0
 24 23  2  0
 32 31  1  0
 32 23  1  0
 15 17  2  0
 15 18  2  0
 19  1  1  1
  1  2  1  0
 19 20  2  0
 23 22  1  0
M  RAD  8   4   2   5   2   7   2  10   2  11   2  13   2  14   2  16   2
M  RAD  4  22   2  27   2  28   2  31   2
M  END
>  <_TriposChargeType>  (1) 
GASTEIGER

>  <SuCOS_score>  (1) 
0.26455480486285954

>  <Volume_score>  (1) 
0.39798628015047577

>  <Feature_score>  (1) 
0.13112332957524325

$$$$
