DOCK.F40.P3n7o/L1004_ligand.pdbt
     RDKit          3D

 33 36  0  0  0  0  0  0  0  0999 V2000
   -2.5900   39.3090   23.1470 C   0  0  0  0  0  3  0  0  0  0  0  0
   -0.0650   39.0800   23.6150 C   0  0  0  0  0  0  0  0  0  0  0  0
   -1.1780   39.5410   22.9240 C   0  0  0  0  0  0  0  0  0  0  0  0
   -0.7140   40.2710   21.8690 N   0  0  0  0  0  0  0  0  0  0  0  0
    0.6240   40.3040   21.8410 C   0  0  0  0  0  0  0  0  0  0  0  0
    1.5370   40.9000   20.9920 C   0  0  0  0  0  3  0  0  0  0  0  0
    2.8960   40.7780   21.2000 C   0  0  0  0  0  3  0  0  0  0  0  0
    3.3300   40.0430   22.2820 C   0  0  0  0  0  0  0  0  0  0  0  0
    4.6600   39.9050   22.5030 F   0  0  0  0  0  0  0  0  0  0  0  0
    2.3930   39.4500   23.1260 C   0  0  0  0  0  3  0  0  0  0  0  0
    1.0340   39.5500   22.9470 C   0  0  0  0  0  0  0  0  0  0  0  0
   -1.2950   40.7730   21.1300 H   0  0  0  0  0  0  0  0  0  0  0  0
   -0.3850   36.8240   24.6940 C   0  0  0  0  0  1  0  0  0  0  0  0
   -0.1540   38.3070   24.8360 C   0  0  0  0  0  3  0  0  0  0  0  0
    1.2000   38.4000   25.6000 C   0  0  0  0  0  1  0  0  0  0  0  0
   -3.3920   40.5890   23.2970 C   0  0  0  0  0  0  0  0  0  0  0  0
   -4.1700   40.9670   24.2890 C   0  0  0  0  0  0  0  0  0  0  0  0
   -4.3780   40.1730   25.4320 O   0  0  0  0  0  0  0  0  0  0  0  0
   -4.7770   42.2970   24.0480 C   0  0  0  0  0  3  0  0  0  0  0  0
   -4.3020   42.6830   22.7610 N   0  0  0  0  0  0  0  0  0  0  0  0
   -3.4480   41.6540   22.3000 C   0  0  0  0  0  0  0  0  0  0  0  0
   -2.8000   41.6000   21.2000 O   0  0  0  0  0  0  0  0  0  0  0  0
   -4.1770   40.5550   26.3530 H   0  0  0  0  0  0  0  0  0  0  0  0
   -4.5490   43.5640   22.2670 H   0  0  0  0  0  0  0  0  0  0  0  0
   -4.4290   43.2900   25.1300 C   0  0  0  0  0  3  0  0  0  0  0  0
   -4.4000   44.7030   24.5780 C   0  0  0  0  0  1  0  0  0  0  0  0
   -5.4950   43.2280   26.1910 C   0  0  0  0  0  1  0  0  0  0  0  0
   -3.2760   38.3240   22.3120 C   0  0  0  0  0  0  0  0  0  0  0  0
   -2.6200   37.4490   21.4640 C   0  0  0  0  0  3  0  0  0  0  0  0
   -3.3010   36.5160   20.7070 C   0  0  0  0  0  3  0  0  0  0  0  0
   -4.6740   36.4160   20.7610 C   0  0  0  0  0  3  0  0  0  0  0  0
   -5.3350   37.2810   21.6000 C   0  0  0  0  0  3  0  0  0  0  0  0
   -4.6470   38.2010   22.3460 C   0  0  0  0  0  3  0  0  0  0  0  0
 30 31  1  0
 30 29  2  0
 31 32  2  0
  6  7  2  0
  6  5  1  0
 12  4  1  0
 22 21  2  0
  7  8  1  0
 29 28  1  0
 32 33  1  0
  5  4  1  0
  5 11  2  0
  4  3  1  0
 24 20  1  0
  8  9  1  0
  8 10  2  0
 21 20  1  0
 21 16  1  0
 28 33  2  0
 28  1  1  0
 20 19  1  0
  3  1  1  0
  3  2  2  0
 11 10  1  0
 11  2  1  0
  1 16  1  0
 16 17  2  0
  2 14  1  0
 19 17  1  0
 19 25  1  0
 17 18  1  0
 26 25  1  0
 13 14  1  0
 14 15  1  0
 25 27  1  0
 18 23  1  0
M  RAD  8   1   2   6   2   7   2  10   2  13   2  14   2  15   2  19   2
M  RAD  8  25   2  26   2  27   2  29   2  30   2  31   2  32   2  33   2
M  END
>  <_TriposChargeType>  (1) 
GASTEIGER

>  <SuCOS_score>  (1) 
0.2833739742816796

>  <Volume_score>  (1) 
0.4692299193459286

>  <Feature_score>  (1) 
0.09751802921743057

$$$$
