DOCK.F40.P3n7o/L1015_ligand.pdbt
     RDKit          3D

 32 35  0  0  0  0  0  0  0  0999 V2000
   -2.3040   36.4680   23.6020 N   0  0  0  0  0  0  0  0  0  0  0  0
   -2.2820   35.8250   24.4230 H   0  0  0  0  0  0  0  0  0  0  0  0
   -2.4820   35.9230   22.3200 C   0  0  0  0  0  0  0  0  0  0  0  0
   -3.0840   36.5570   21.2510 C   0  0  0  0  0  3  0  0  0  0  0  0
   -3.2280   35.9950   19.9970 C   0  0  0  0  0  3  0  0  0  0  0  0
   -2.7520   34.7320   19.7710 C   0  0  0  0  0  0  0  0  0  0  0  0
   -2.1440   34.0710   20.8180 C   0  0  0  0  0  3  0  0  0  0  0  0
   -2.0090   34.6290   22.0420 C   0  0  0  0  0  0  0  0  0  0  0  0
   -2.8650   34.0660   18.4700 C   0  0  0  0  0  0  0  0  0  0  0  0
   -4.0420   33.4760   18.0480 C   0  0  0  0  0  3  0  0  0  0  0  0
   -4.1090   32.8540   16.8080 C   0  0  0  0  0  3  0  0  0  0  0  0
   -3.0300   32.8290   16.0270 N   0  0  0  0  0  0  0  0  0  0  0  0
   -1.8630   33.3890   16.3960 C   0  0  0  0  0  3  0  0  0  0  0  0
   -1.7890   34.0040   17.6170 C   0  0  0  0  0  3  0  0  0  0  0  0
   -1.2320   33.7510   23.3340 S   0  0  1  0  0  6  0  0  0  0  0  0
   -2.4830   33.1970   24.4640 C   0  0  0  0  0  1  0  0  0  0  0  0
   -0.5110   32.5610   22.7710 O   0  0  0  0  0  0  0  0  0  0  0  0
   -0.1980   34.5940   24.0290 O   0  0  0  0  0  0  0  0  0  0  0  0
   -2.1220   38.1390   23.8470 S   0  0  2  0  0  6  0  0  0  0  0  0
   -2.3920   38.4400   25.3140 O   0  0  0  0  0  0  0  0  0  0  0  0
   -3.1710   38.9010   23.0800 O   0  0  0  0  0  0  0  0  0  0  0  0
    0.6490   38.0040   25.4800 C   0  0  0  0  0  1  0  0  0  0  0  0
    0.6510   38.6590   24.1050 C   0  0  0  0  0  0  0  0  0  0  0  0
   -0.5270   38.7130   23.4190 C   0  0  0  0  0  0  0  0  0  0  0  0
   -0.1150   39.4950   21.9760 S   0  0  0  0  0  0  0  0  0  0  0  0
    1.5600   39.7450   22.2670 C   0  0  0  0  0  0  0  0  0  0  0  0
    2.5840   40.3380   21.5210 C   0  0  0  0  0  3  0  0  0  0  0  0
    3.8690   40.3990   22.0170 C   0  0  0  0  0  3  0  0  0  0  0  0
    4.0440   39.8450   23.2670 C   0  0  0  0  0  0  0  0  0  0  0  0
    5.3080   39.8950   23.7760 F   0  0  0  0  0  0  0  0  0  0  0  0
    3.0570   39.2630   24.0080 C   0  0  0  0  0  3  0  0  0  0  0  0
    1.7360   39.1950   23.5060 C   0  0  0  0  0  0  0  0  0  0  0  0
 12 13  2  0
 12 11  1  0
 13 14  1  0
 11 10  2  0
 14  9  2  0
 10  9  1  0
  9  6  1  0
  6  5  1  0
  6  7  2  0
  5  4  2  0
  7  8  1  0
  4  3  1  0
 27 28  2  0
 27 26  1  0
 25 26  1  0
 25 24  1  0
 28 29  1  0
  8  3  2  0
  8 15  1  0
 26 32  2  0
  3  1  1  0
 17 15  2  0
 21 19  2  0
 29 30  1  0
 29 31  2  0
 15 18  2  0
 15 16  1  1
 24 19  1  0
 24 23  2  0
 32 31  1  0
 32 23  1  0
 19  1  1  1
  1  2  1  0
 19 20  2  0
 23 22  1  0
M  RAD  8   4   2   5   2   7   2  10   2  11   2  13   2  14   2  16   2
M  RAD  4  22   2  27   2  28   2  31   2
M  END
>  <_TriposChargeType>  (1) 
GASTEIGER

>  <SuCOS_score>  (1) 
0.2864716223937934

>  <Volume_score>  (1) 
0.3990011098779135

>  <Feature_score>  (1) 
0.17394213490967342

$$$$
