DOCK.F40.P3n7o/L1014_ligand.pdbt
     RDKit          3D

 24 27  0  0  0  0  0  0  0  0999 V2000
   -0.7510   38.7990   21.2990 C   0  0  0  0  0  2  0  0  0  0  0  0
    1.3190   40.2250   20.7780 C   0  0  0  0  0  1  0  0  0  0  0  0
    1.8450   39.8000   22.0610 C   0  0  0  0  0  0  0  0  0  0  0  0
    3.1370   40.1690   22.4840 C   0  0  0  0  0  3  0  0  0  0  0  0
    3.6390   39.8810   23.7200 C   0  0  0  0  0  3  0  0  0  0  0  0
    2.8540   39.2000   24.6010 C   0  0  0  0  0  3  0  0  0  0  0  0
    1.5740   38.8120   24.2370 C   0  0  0  0  0  0  0  0  0  0  0  0
    0.7940   38.1740   25.1630 C   0  0  0  0  0  3  0  0  0  0  0  0
   -0.4790   37.8310   24.8330 C   0  0  0  0  0  3  0  0  0  0  0  0
   -0.9600   38.1100   23.6100 C   0  0  0  0  0  3  0  0  0  0  0  0
   -0.2090   38.7660   22.5890 C   0  0  0  0  0  0  0  0  0  0  0  0
    1.0620   39.1050   22.9630 C   0  0  0  0  0  0  0  0  0  0  0  0
   -2.2140   38.4370   21.4120 N   0  0  0  0  0  0  0  0  0  0  0  0
   -3.2370   39.2300   21.7550 C   0  0  0  0  0  0  0  0  0  0  0  0
   -4.3990   38.4210   21.8010 C   0  0  0  0  0  3  0  0  0  0  0  0
   -4.0600   37.1380   21.4840 C   0  0  0  0  0  0  0  0  0  0  0  0
   -4.7730   35.9410   21.3940 C   0  0  0  0  0  3  0  0  0  0  0  0
   -4.1500   34.7620   21.0680 C   0  0  0  0  0  3  0  0  0  0  0  0
   -2.7980   34.8010   20.8350 C   0  0  0  0  0  3  0  0  0  0  0  0
   -2.0950   35.9920   20.9260 C   0  0  0  0  0  3  0  0  0  0  0  0
   -2.6930   37.1860   21.2490 C   0  0  0  0  0  0  0  0  0  0  0  0
   -3.2610   40.6410   22.0380 C   0  0  0  0  0  0  0  0  0  0  0  0
   -4.1990   41.0920   22.8000 O   0  0  0  0  0  1  0  0  0  0  0  0
   -2.3980   41.6000   21.6000 O   0  0  0  0  0  0  0  0  0  0  0  0
  2  3  1  0
 19 20  1  0
 19 18  2  0
 20 21  2  0
 18 17  1  0
 21 13  1  0
 21 16  1  0
  1 13  1  0
  1 11  1  0
 17 16  2  0
 13 14  1  0
 16 15  1  0
 24 22  2  0
 14 15  2  0
 14 22  1  0
 22 23  1  0
  3  4  2  0
  3 12  1  0
  4  5  1  0
 11 12  2  0
 11 10  1  0
 12  7  1  0
 10  9  2  0
  5  6  2  0
  7  6  1  0
  7  8  2  0
  9  8  1  0
M  RAD  8   1   3   2   2   4   2   5   2   6   2   8   2   9   2  10   2
M  CHG  1  23  -1
M  RAD  5  15   2  17   2  18   2  19   2  20   2
M  END
>  <_TriposChargeType>  (1) 
GASTEIGER

>  <SuCOS_score>  (1) 
0.3345743408054631

>  <Volume_score>  (1) 
0.3981880455198321

>  <Feature_score>  (1) 
0.2709606360910941

$$$$
