DOCK.F40.P3n7o/L1010_ligand.pdbt
     RDKit          3D

 24 27  0  0  0  0  0  0  0  0999 V2000
   -3.3220   39.2600   21.7850 C   0  0  0  0  0  0  0  0  0  0  0  0
   -4.4820   38.5200   21.6890 C   0  0  0  0  0  3  0  0  0  0  0  0
   -4.1030   37.2290   21.4050 C   0  0  0  0  0  0  0  0  0  0  0  0
   -4.8460   36.0580   21.2000 C   0  0  0  0  0  3  0  0  0  0  0  0
   -4.2360   34.8580   20.9240 C   0  0  0  0  0  3  0  0  0  0  0  0
   -2.8740   34.8300   20.8520 C   0  0  0  0  0  3  0  0  0  0  0  0
   -2.1410   35.9800   21.0530 C   0  0  0  0  0  3  0  0  0  0  0  0
   -2.7450   37.2040   21.3340 C   0  0  0  0  0  0  0  0  0  0  0  0
   -2.2820   38.4400   21.5660 N   0  0  0  0  0  0  0  0  0  0  0  0
   -4.2000   41.1630   22.8000 O   0  0  0  0  0  1  0  0  0  0  0  0
   -3.2970   40.6920   22.0790 C   0  0  0  0  0  0  0  0  0  0  0  0
   -2.3240   41.5490   21.6000 O   0  0  0  0  0  0  0  0  0  0  0  0
   -0.9040   38.8040   21.5740 C   0  0  0  0  0  2  0  0  0  0  0  0
   -0.2330   38.6330   22.8640 C   0  0  0  0  0  0  0  0  0  0  0  0
   -0.8330   38.0590   23.9590 C   0  0  0  0  0  3  0  0  0  0  0  0
   -0.1010   37.9530   25.1190 C   0  0  0  0  0  3  0  0  0  0  0  0
    1.2000   38.3970   25.2250 C   0  0  0  0  0  3  0  0  0  0  0  0
    1.8150   38.9800   24.1180 C   0  0  0  0  0  0  0  0  0  0  0  0
    3.1150   39.4300   24.2030 C   0  0  0  0  0  3  0  0  0  0  0  0
    3.6940   40.0010   23.0910 C   0  0  0  0  0  3  0  0  0  0  0  0
    3.0030   40.1240   21.9220 C   0  0  0  0  0  0  0  0  0  0  0  0
    3.5390   40.6830   20.7990 F   0  0  0  0  0  0  0  0  0  0  0  0
    1.7120   39.6650   21.8760 C   0  0  0  0  0  3  0  0  0  0  0  0
    1.0690   39.0760   22.9720 C   0  0  0  0  0  0  0  0  0  0  0  0
 22 21  1  0
  6  5  2  0
  6  7  1  0
  5  4  1  0
  7  8  2  0
  4  3  2  0
  8  3  1  0
  8  9  1  0
  3  2  1  0
  9 13  1  0
  9  1  1  0
 13 14  1  0
 12 11  2  0
  2  1  2  0
  1 11  1  0
 23 21  1  0
 23 24  2  0
 21 20  2  0
 11 10  1  0
 14 24  1  0
 14 15  2  0
 24 18  1  0
 20 19  1  0
 15 16  1  0
 18 19  2  0
 18 17  1  0
 16 17  2  0
M  RAD  8   2   2   4   2   5   2   6   2   7   2  13   3  15   2  16   2
M  CHG  1  10  -1
M  RAD  4  17   2  19   2  20   2  23   2
M  END
>  <_TriposChargeType>  (1) 
GASTEIGER

>  <SuCOS_score>  (1) 
0.31271522153307174

>  <Volume_score>  (1) 
0.4081316981549

>  <Feature_score>  (1) 
0.21729874491124346

$$$$
