DOCK.F40.P4k2y/L1007_ligand.pdbt
     RDKit          3D

 31 35  0  0  0  0  0  0  0  0999 V2000
   -2.8340   38.5480   22.2560 C   0  0  0  0  0  3  0  0  0  0  0  0
   -1.4110   38.8440   22.3870 C   0  0  0  0  0  0  0  0  0  0  0  0
   -0.8580   38.7050   23.6720 C   0  0  0  0  0  3  0  0  0  0  0  0
    0.4600   38.9480   23.9520 C   0  0  0  0  0  3  0  0  0  0  0  0
    1.2930   39.3490   22.9320 C   0  0  0  0  0  0  0  0  0  0  0  0
    2.6360   39.6000   23.1990 C   0  0  0  0  0  3  0  0  0  0  0  0
    3.4610   40.0000   22.1780 C   0  0  0  0  0  3  0  0  0  0  0  0
    2.9220   40.1370   20.9200 C   0  0  0  0  0  3  0  0  0  0  0  0
    1.6020   39.8910   20.6500 C   0  0  0  0  0  3  0  0  0  0  0  0
    0.7480   39.4850   21.6680 C   0  0  0  0  0  0  0  0  0  0  0  0
   -0.5790   39.2390   21.3900 C   0  0  0  0  0  3  0  0  0  0  0  0
   -5.5340   41.4410   20.1340 C   0  0  0  0  0  1  0  0  0  0  0  0
   -4.9420   41.2700   21.5420 C   0  0  2  0  0  0  0  0  0  0  0  0
   -3.5190   41.0720   21.5010 C   0  0  0  0  0  0  0  0  0  0  0  0
   -2.5510   41.7990   21.2000 O   0  0  0  0  0  0  0  0  0  0  0  0
   -3.7060   39.7210   21.9400 C   0  0  0  0  0  0  0  0  0  0  0  0
   -5.0070   39.9010   21.9770 C   0  0  0  0  0  0  0  0  0  0  0  0
   -6.0970   39.0810   22.3140 O   0  0  0  0  0  0  0  0  0  0  0  0
   -6.2820   38.3020   21.6930 H   0  0  0  0  0  0  0  0  0  0  0  0
   -5.4620   42.2970   22.4760 C   0  0  0  0  0  0  0  0  0  0  0  0
   -6.3940   43.1900   22.0010 C   0  0  0  0  0  3  0  0  0  0  0  0
   -6.9340   44.1820   22.8000 C   0  0  0  0  0  3  0  0  0  0  0  0
   -6.5450   44.2990   24.1110 C   0  0  0  0  0  3  0  0  0  0  0  0
   -5.6100   43.4010   24.5830 C   0  0  0  0  0  3  0  0  0  0  0  0
   -5.0750   42.4130   23.7760 C   0  0  0  0  0  3  0  0  0  0  0  0
   -3.0250   37.4000   21.3530 C   0  0  0  0  0  0  0  0  0  0  0  0
   -4.2540   36.7940   21.2180 C   0  0  0  0  0  3  0  0  0  0  0  0
   -4.4720   35.7160   20.4010 C   0  0  0  0  0  3  0  0  0  0  0  0
   -3.4260   35.2060   19.6750 C   0  0  0  0  0  3  0  0  0  0  0  0
   -2.1880   35.8030   19.8000 C   0  0  0  0  0  3  0  0  0  0  0  0
   -1.9630   36.8930   20.6250 C   0  0  0  0  0  3  0  0  0  0  0  0
 29 30  2  0
 29 28  1  0
 30 31  1  0
 13 12  1  6
 28 27  2  0
 31 26  2  0
  9  8  2  0
  9 10  1  0
  8  7  1  0
 15 14  2  0
 27 26  1  0
 26  1  1  0
 11 10  2  0
 11  2  1  0
 14 13  1  0
 14 16  1  0
 13 17  1  0
 13 20  1  0
 10  5  1  0
 19 18  1  0
 16 17  2  0
 16  1  1  0
 17 18  1  0
 21 20  2  0
 21 22  1  0
  7  6  2  0
  1  2  1  0
  2  3  2  0
 20 25  1  0
 22 23  2  0
  5  6  1  0
  5  4  2  0
  3  4  1  0
 25 24  2  0
 23 24  1  0
M  RAD  8   1   2   3   2   4   2   6   2   7   2   8   2   9   2  11   2
M  RAD  8  12   2  21   2  22   2  23   2  24   2  25   2  27   2  28   2
M  RAD  3  29   2  30   2  31   2
M  END
>  <_TriposChargeType>  (1) 
GASTEIGER

>  <SuCOS_score>  (1) 
0.3926333868714664

>  <Volume_score>  (1) 
0.5472323500165728

>  <Feature_score>  (1) 
0.2380344237263601

$$$$
