DOCK.F40.P4k2y/L1002_ligand.pdbt
     RDKit          3D

 40 44  0  0  0  0  0  0  0  0999 V2000
   -2.2380   37.9520   22.8510 C   0  0  0  0  0  3  0  0  0  0  0  0
    3.2840   39.8950   21.4560 C   0  0  0  0  0  0  0  0  0  0  0  0
    3.5580   39.7110   22.7970 C   0  0  0  0  0  3  0  0  0  0  0  0
    2.5670   39.2500   23.6180 C   0  0  0  0  0  3  0  0  0  0  0  0
    1.3080   38.9760   23.0880 C   0  0  0  0  0  0  0  0  0  0  0  0
    0.1390   38.5130   23.6440 C   0  0  0  0  0  0  0  0  0  0  0  0
   -0.8350   38.4120   22.6720 C   0  0  0  0  0  0  0  0  0  0  0  0
   -0.2720   38.8130   21.5110 N   0  0  0  0  0  0  0  0  0  0  0  0
    1.0220   39.1570   21.7400 C   0  0  0  0  0  0  0  0  0  0  0  0
    2.0370   39.6250   20.9200 C   0  0  0  0  0  3  0  0  0  0  0  0
   -0.6890   38.8760   20.5570 H   0  0  0  0  0  0  0  0  0  0  0  0
    4.4510   39.6310   19.2990 C   0  0  0  0  0  1  0  0  0  0  0  0
    4.3990   40.3980   20.6050 C   0  0  0  0  0  2  0  0  0  0  0  0
   -0.0330   38.1820   25.0680 C   0  0  0  0  0  2  0  0  0  0  0  0
    0.4160   36.8120   25.4300 C   0  0  0  0  0  2  0  0  0  0  0  0
   -0.6360   35.8640   25.1670 N   0  0  0  0  0  0  0  0  0  0  0  0
   -0.7100   35.0250   24.0490 C   0  0  0  0  0  0  0  0  0  0  0  0
   -1.8510   34.0530   23.8520 C   0  0  0  0  0  1  0  0  0  0  0  0
    0.2020   35.0800   23.1840 O   0  0  0  0  0  0  0  0  0  0  0  0
   -1.4160   35.8020   25.8830 H   0  0  0  0  0  0  0  0  0  0  0  0
   -3.1780   39.1190   22.9410 C   0  0  0  0  0  0  0  0  0  0  0  0
   -3.4370   40.0460   22.0680 C   0  0  0  0  0  0  0  0  0  0  0  0
   -2.8650   40.1580   20.7930 O   0  0  0  0  0  0  0  0  0  0  0  0
   -4.4390   41.0180   22.5670 C   0  0  0  0  0  3  0  0  0  0  0  0
   -4.9550   40.4390   23.8410 C   0  0  0  0  0  2  0  0  0  0  0  0
   -3.9810   39.3630   24.1320 C   0  0  0  0  0  0  0  0  0  0  0  0
   -3.8900   38.7710   25.2530 O   0  0  0  0  0  0  0  0  0  0  0  0
   -3.5060   40.2960   20.0190 H   0  0  0  0  0  0  0  0  0  0  0  0
   -5.5310   41.2380   21.5890 C   0  0  0  0  0  0  0  0  0  0  0  0
   -6.0790   40.1630   20.9320 C   0  0  0  0  0  3  0  0  0  0  0  0
   -7.1020   40.3250   20.0060 C   0  0  0  0  0  3  0  0  0  0  0  0
   -7.5770   41.5970   19.7400 C   0  0  0  0  0  3  0  0  0  0  0  0
   -7.0240   42.6770   20.4010 C   0  0  0  0  0  3  0  0  0  0  0  0
   -6.0100   42.4940   21.3160 C   0  0  0  0  0  3  0  0  0  0  0  0
   -2.6120   37.0450   21.7440 C   0  0  0  0  0  0  0  0  0  0  0  0
   -3.9150   36.6260   21.6580 C   0  0  0  0  0  3  0  0  0  0  0  0
   -4.3240   35.7830   20.6550 C   0  0  0  0  0  3  0  0  0  0  0  0
   -3.4200   35.3420   19.7140 C   0  0  0  0  0  3  0  0  0  0  0  0
   -2.1170   35.7760   19.8200 C   0  0  0  0  0  3  0  0  0  0  0  0
   -1.7020   36.6240   20.8260 C   0  0  0  0  0  3  0  0  0  0  0  0
 12 13  1  0
 38 39  2  0
 38 37  1  0
 32 31  1  0
 32 33  2  0
 39 40  1  0
 31 30  2  0
 28 23  1  0
 33 34  1  0
 11  8  1  0
 13  2  1  0
 37 36  2  0
 23 22  1  0
 40 35  2  0
 10  2  2  0
 10  9  1  0
 30 29  1  0
 34 29  2  0
  2  3  1  0
  8  9  1  0
  8  7  1  0
 29 24  1  0
 36 35  1  0
  9  5  2  0
 35  1  1  0
 22 24  1  0
 22 21  2  0
 24 25  1  0
  7  1  1  0
  7  6  2  0
  3  4  2  0
  1 21  1  0
 21 26  1  0
  5  4  1  0
  5  6  1  0
 19 17  2  0
  6 14  1  0
 25 26  1  0
 18 17  1  0
 17 16  1  0
 26 27  2  0
 14 15  1  0
 16 15  1  0
 16 20  1  0
M  RAD  8   1   2   3   2   4   2  10   2  12   2  13   3  14   3  15   3
M  RAD  8  18   2  24   2  25   3  30   2  31   2  32   2  33   2  34   2
M  RAD  5  36   2  37   2  38   2  39   2  40   2
M  END
>  <_TriposChargeType>  (1) 
GASTEIGER

>  <SuCOS_score>  (1) 
0.32606421556594123

>  <Volume_score>  (1) 
0.5347912524850895

>  <Feature_score>  (1) 
0.117337178646793

$$$$
