DOCK.F40.P4k2y/L1005_ligand.pdbt
     RDKit          3D

 31 34  0  0  0  0  0  0  0  0999 V2000
   -4.1600   38.5270   21.5980 C   0  0  0  0  0  0  0  0  0  0  0  0
   -3.0140   39.3500   21.5710 C   0  0  0  0  0  0  0  0  0  0  0  0
   -1.9560   38.6420   21.2020 N   0  0  0  0  0  4  0  0  0  0  0  0
   -2.3760   37.3350   20.9810 C   0  0  0  0  0  0  0  0  0  0  0  0
   -1.6020   36.2550   20.6140 C   0  0  0  0  0  3  0  0  0  0  0  0
   -2.2470   35.0160   20.4890 C   0  0  0  0  0  3  0  0  0  0  0  0
   -3.5960   34.9230   20.7290 C   0  0  0  0  0  0  0  0  0  0  0  0
   -4.2460   33.7140   20.6070 F   0  0  0  0  0  0  0  0  0  0  0  0
   -4.3320   36.0360   21.0950 C   0  0  0  0  0  3  0  0  0  0  0  0
   -3.7320   37.2770   21.2280 C   0  0  0  0  0  0  0  0  0  0  0  0
   -3.1020   40.7610   21.9500 C   0  0  0  0  0  0  0  0  0  0  0  0
   -3.6650   41.1370   23.0360 O   0  0  0  0  0  1  0  0  0  0  0  0
   -2.6000   41.7990   21.2000 O   0  0  0  0  0  0  0  0  0  0  0  0
   -5.4980   38.9870   21.9830 C   0  0  0  0  0  2  0  0  0  0  0  0
   -7.0610   40.0880   20.3430 C   0  0  0  0  0  0  0  0  0  0  0  0
   -7.5030   38.9490   20.0000 O   0  0  0  0  0  0  0  0  0  0  0  0
   -6.0490   40.1230   21.3390 N   0  0  0  0  0  0  0  0  0  0  0  0
   -5.7160   41.1130   21.5910 H   0  0  0  0  0  0  0  0  0  0  0  0
   -8.6000   41.2220   18.7990 C   0  0  0  0  0  1  0  0  0  0  0  0
   -7.5610   41.2460   19.7520 O   0  0  0  0  0  0  0  0  0  0  0  0
   -0.5680   39.0540   21.0800 C   0  0  0  0  0  2  0  0  0  0  0  0
    0.1410   38.9140   22.3370 C   0  0  0  0  0  0  0  0  0  0  0  0
   -0.5130   38.4600   23.4730 C   0  0  0  0  0  3  0  0  0  0  0  0
    0.0970   38.1960   24.6790 C   0  0  0  0  0  3  0  0  0  0  0  0
    1.4580   38.4080   24.7360 C   0  0  0  0  0  3  0  0  0  0  0  0
    2.1510   38.8560   23.6580 C   0  0  0  0  0  0  0  0  0  0  0  0
    3.4900   39.0930   23.8000 C   0  0  0  0  0  3  0  0  0  0  0  0
    4.2420   39.6000   22.7460 C   0  0  0  0  0  3  0  0  0  0  0  0
    3.5900   39.8590   21.5450 C   0  0  0  0  0  3  0  0  0  0  0  0
    2.2410   39.6220   21.3940 C   0  0  0  0  0  3  0  0  0  0  0  0
    1.5020   39.1180   22.4350 C   0  0  0  0  0  0  0  0  0  0  0  0
 19 20  1  0
 20 15  1  0
 16 15  2  0
 15 17  1  0
  6  5  2  0
  6  7  1  0
  8  7  1  0
  5  4  1  0
  7  9  2  0
  4  3  1  0
  4 10  2  0
 21  3  1  0
 21 22  1  0
  9 10  1  0
 13 11  2  0
  3  2  1  0
 10  1  1  0
 17 18  1  0
 17 14  1  0
 30 29  1  0
 30 31  2  0
 29 28  2  0
  2  1  2  0
  2 11  1  0
  1 14  1  0
 11 12  1  0
 22 31  1  0
 22 23  2  0
 31 26  1  0
 28 27  1  0
 23 24  1  0
 26 27  2  0
 26 25  1  0
 24 25  2  0
M  RAD  8   5   2   6   2   9   2  14   3  19   2  21   3  23   2  24   2
M  CHG  2   3   1  12  -1
M  RAD  5  25   2  27   2  28   2  29   2  30   2
M  END
>  <_TriposChargeType>  (1) 
GASTEIGER

>  <SuCOS_score>  (1) 
0.34003449044414064

>  <Volume_score>  (1) 
0.5000552425146393

>  <Feature_score>  (1) 
0.18001373837364198

$$$$
