DOCK.F40.P4k2y/L1004_ligand.pdbt
     RDKit          3D

 33 36  0  0  0  0  0  0  0  0999 V2000
   -2.5610   38.8020   22.6150 C   0  0  0  0  0  3  0  0  0  0  0  0
   -0.0800   38.7020   23.3090 C   0  0  0  0  0  0  0  0  0  0  0  0
   -1.1470   39.0980   22.5120 C   0  0  0  0  0  0  0  0  0  0  0  0
   -0.6240   39.8310   21.4880 N   0  0  0  0  0  0  0  0  0  0  0  0
    0.7080   39.9270   21.5780 C   0  0  0  0  0  0  0  0  0  0  0  0
    1.6650   40.5520   20.8000 C   0  0  0  0  0  3  0  0  0  0  0  0
    3.0040   40.4970   21.1290 C   0  0  0  0  0  3  0  0  0  0  0  0
    3.3720   39.8020   22.2600 C   0  0  0  0  0  0  0  0  0  0  0  0
    4.6820   39.7310   22.6010 F   0  0  0  0  0  0  0  0  0  0  0  0
    2.3920   39.1800   23.0310 C   0  0  0  0  0  3  0  0  0  0  0  0
    1.0510   39.2120   22.7310 C   0  0  0  0  0  0  0  0  0  0  0  0
   -1.1600   40.2920   20.6900 H   0  0  0  0  0  0  0  0  0  0  0  0
    0.0000   36.4600   24.4590 C   0  0  0  0  0  1  0  0  0  0  0  0
   -0.2420   37.9460   24.5330 C   0  0  0  0  0  3  0  0  0  0  0  0
    0.8000   38.4400   25.5810 C   0  0  0  0  0  1  0  0  0  0  0  0
   -3.4340   40.0440   22.6260 C   0  0  0  0  0  0  0  0  0  0  0  0
   -3.6400   40.9190   21.6630 C   0  0  0  0  0  0  0  0  0  0  0  0
   -3.0310   40.8110   20.4000 O   0  0  0  0  0  0  0  0  0  0  0  0
   -4.5680   41.9960   22.0780 C   0  0  0  0  0  3  0  0  0  0  0  0
   -4.8870   41.6970   23.4340 N   0  0  0  0  0  0  0  0  0  0  0  0
   -4.2100   40.5030   23.7730 C   0  0  0  0  0  0  0  0  0  0  0  0
   -4.2290   39.8740   24.8860 O   0  0  0  0  0  0  0  0  0  0  0  0
   -3.6100   40.7860   19.5640 H   0  0  0  0  0  0  0  0  0  0  0  0
   -5.5070   42.2650   24.0470 H   0  0  0  0  0  0  0  0  0  0  0  0
   -5.7850   42.0780   21.1880 C   0  0  0  0  0  3  0  0  0  0  0  0
   -6.4140   40.7100   21.0040 C   0  0  0  0  0  1  0  0  0  0  0  0
   -6.7990   42.9700   21.8530 C   0  0  0  0  0  1  0  0  0  0  0  0
   -3.1160   37.7460   21.7700 C   0  0  0  0  0  0  0  0  0  0  0  0
   -2.3540   36.9670   20.9180 C   0  0  0  0  0  3  0  0  0  0  0  0
   -2.9120   35.9630   20.1510 C   0  0  0  0  0  3  0  0  0  0  0  0
   -4.2610   35.6910   20.2000 C   0  0  0  0  0  3  0  0  0  0  0  0
   -5.0280   36.4600   21.0430 C   0  0  0  0  0  3  0  0  0  0  0  0
   -4.4620   37.4520   21.7990 C   0  0  0  0  0  3  0  0  0  0  0  0
 23 18  1  0
 30 31  1  0
 30 29  2  0
 31 32  2  0
 18 17  1  0
 12  4  1  0
  6  7  2  0
  6  5  1  0
 29 28  1  0
 26 25  1  0
 32 33  1  0
  7  8  1  0
 25 27  1  0
 25 19  1  0
  4  5  1  0
  4  3  1  0
  5 11  2  0
 17 19  1  0
 17 16  2  0
 28 33  2  0
 28  1  1  0
 19 20  1  0
  8  9  1  0
  8 10  2  0
  3  1  1  0
  3  2  2  0
  1 16  1  0
 16 21  1  0
 11 10  1  0
 11  2  1  0
  2 14  1  0
 20 21  1  0
 20 24  1  0
 21 22  2  0
 13 14  1  0
 14 15  1  0
M  RAD  8   1   2   6   2   7   2  10   2  13   2  14   2  15   2  19   2
M  RAD  8  25   2  26   2  27   2  29   2  30   2  31   2  32   2  33   2
M  END
>  <_TriposChargeType>  (1) 
GASTEIGER

>  <SuCOS_score>  (1) 
0.2866018241947503

>  <Volume_score>  (1) 
0.49585681140205506

>  <Feature_score>  (1) 
0.07734683698744549

$$$$
