DOCK.F40.P4k2y/L1003_ligand.pdbt
     RDKit          3D

 32 35  0  0  0  0  0  0  0  0999 V2000
   -3.1590   39.6490   22.6390 N   0  0  0  0  0  0  0  0  0  0  0  0
   -2.8260   40.5830   23.0330 H   0  0  0  0  0  0  0  0  0  0  0  0
   -4.3790   39.6550   21.9650 C   0  0  0  0  0  0  0  0  0  0  0  0
   -5.2180   38.5530   21.9140 C   0  0  0  0  0  3  0  0  0  0  0  0
   -6.4230   38.5790   21.2300 C   0  0  0  0  0  3  0  0  0  0  0  0
   -6.8310   39.7150   20.5690 C   0  0  0  0  0  0  0  0  0  0  0  0
   -6.0130   40.8160   20.6080 C   0  0  0  0  0  3  0  0  0  0  0  0
   -4.8040   40.7830   21.2970 C   0  0  0  0  0  0  0  0  0  0  0  0
   -8.0840   39.8040   19.8340 C   0  0  0  0  0  0  0  0  0  0  0  0
   -8.3700   40.8850   19.0160 C   0  0  0  0  0  3  0  0  0  0  0  0
   -9.5470   41.0000   18.3070 C   0  0  0  0  0  3  0  0  0  0  0  0
  -10.4670   40.0060   18.4150 N   0  0  0  0  0  0  0  0  0  0  0  0
  -10.2140   38.9510   19.2000 C   0  0  0  0  0  3  0  0  0  0  0  0
   -9.0440   38.8170   19.9170 C   0  0  0  0  0  3  0  0  0  0  0  0
   -4.0000   42.0160   21.2690 C   0  0  2  0  0  0  0  0  0  0  0  0
   -2.6520   41.8000   21.2010 F   0  0  0  0  0  0  0  0  0  0  0  0
   -4.3340   42.7880   22.3920 F   0  0  0  0  0  0  0  0  0  0  0  0
   -4.3320   42.8050   20.1860 F   0  0  0  0  0  0  0  0  0  0  0  0
   -2.1200   38.3210   22.9140 S   0  0  1  0  0  6  0  0  0  0  0  0
   -2.3460   37.7350   24.2890 O   0  0  0  0  0  0  0  0  0  0  0  0
   -2.4510   37.1810   21.9560 O   0  0  0  0  0  0  0  0  0  0  0  0
    0.5130   38.1420   24.9150 C   0  0  0  0  0  1  0  0  0  0  0  0
    0.6580   38.6640   23.4930 C   0  0  0  0  0  0  0  0  0  0  0  0
   -0.4340   38.7180   22.6920 C   0  0  0  0  0  0  0  0  0  0  0  0
    0.1990   39.3420   21.2210 S   0  0  0  0  0  0  0  0  0  0  0  0
    1.8290   39.5120   21.6770 C   0  0  0  0  0  0  0  0  0  0  0  0
    2.9590   39.9680   20.9960 C   0  0  0  0  0  3  0  0  0  0  0  0
    4.1890   40.0010   21.6160 C   0  0  0  0  0  3  0  0  0  0  0  0
    4.2030   39.5610   22.9230 C   0  0  0  0  0  0  0  0  0  0  0  0
    5.4190   39.5910   23.5470 F   0  0  0  0  0  0  0  0  0  0  0  0
    3.1020   39.1130   23.5990 C   0  0  0  0  0  3  0  0  0  0  0  0
    1.8420   39.0770   22.9680 C   0  0  0  0  0  0  0  0  0  0  0  0
 11 12  1  0
 11 10  2  0
 12 13  2  0
 10  9  1  0
 13 14  1  0
  9 14  2  0
  9  6  1  0
 15 18  1  6
  6  7  2  0
  6  5  1  0
  7  8  1  0
 27 28  2  0
 27 26  1  0
 16 15  1  0
 25 26  1  0
 25 24  1  0
  5  4  2  0
 15  8  1  0
 15 17  1  0
  8  3  2  0
 28 29  1  0
 26 32  2  0
  4  3  1  0
 21 19  2  0
  3  1  1  0
 19  1  1  6
  1  2  1  0
 24 19  1  0
 24 23  2  0
 19 20  2  0
 29 30  1  0
 29 31  2  0
 32 23  1  0
 32 31  1  0
 23 22  1  0
M  RAD  8   4   2   5   2   7   2  10   2  11   2  13   2  14   2  22   2
M  RAD  3  27   2  28   2  31   2
M  END
>  <_TriposChargeType>  (1) 
GASTEIGER

>  <SuCOS_score>  (1) 
0.3151099775733449

>  <Volume_score>  (1) 
0.44952908587257623

>  <Feature_score>  (1) 
0.1806908692741136

$$$$
