DOCK.F40.P4k2y/L1011_ligand.pdbt
     RDKit          3D

 30 33  0  0  0  0  0  0  0  0999 V2000
   -4.2850   38.6170   21.6680 C   0  0  0  0  0  0  0  0  0  0  0  0
   -3.1330   39.3950   21.6430 C   0  0  0  0  0  0  0  0  0  0  0  0
   -2.1130   38.6140   21.1680 N   0  0  0  0  0  4  0  0  0  0  0  0
   -2.5770   37.3820   20.8900 C   0  0  0  0  0  0  0  0  0  0  0  0
   -2.0000   36.2270   20.3900 C   0  0  0  0  0  3  0  0  0  0  0  0
   -2.7160   35.0640   20.1850 C   0  0  0  0  0  3  0  0  0  0  0  0
   -4.0600   35.0880   20.5050 C   0  0  0  0  0  0  0  0  0  0  0  0
   -4.7720   33.9500   20.3130 F   0  0  0  0  0  0  0  0  0  0  0  0
   -4.6450   36.2220   21.0010 C   0  0  0  0  0  3  0  0  0  0  0  0
   -3.9120   37.3740   21.1970 C   0  0  0  0  0  0  0  0  0  0  0  0
   -3.1340   40.7960   22.0180 C   0  0  0  0  0  0  0  0  0  0  0  0
   -3.6000   41.1690   23.1420 O   0  0  0  0  0  1  0  0  0  0  0  0
   -2.6430   41.8000   21.2000 O   0  0  0  0  0  0  0  0  0  0  0  0
   -5.6570   39.0110   22.0740 C   0  0  0  0  0  2  0  0  0  0  0  0
   -7.6040   40.9990   19.3990 C   0  0  0  0  0  1  0  0  0  0  0  0
   -6.7580   40.7560   20.5630 N   0  0  0  0  0  0  0  0  0  0  0  0
   -6.2650   41.9040   21.2600 C   0  0  0  0  0  1  0  0  0  0  0  0
   -6.4750   39.4270   20.9240 C   0  0  0  0  0  0  0  0  0  0  0  0
   -6.9560   38.4830   20.2120 O   0  0  0  0  0  0  0  0  0  0  0  0
   -0.7530   39.0940   21.0690 C   0  0  0  0  0  2  0  0  0  0  0  0
   -0.0490   38.8690   22.3570 C   0  0  0  0  0  0  0  0  0  0  0  0
   -0.7390   38.3110   23.4300 C   0  0  0  0  0  3  0  0  0  0  0  0
   -0.0820   37.9770   24.6050 C   0  0  0  0  0  3  0  0  0  0  0  0
    1.2660   38.2000   24.7070 C   0  0  0  0  0  3  0  0  0  0  0  0
    1.9980   38.7490   23.6840 C   0  0  0  0  0  0  0  0  0  0  0  0
    3.3650   39.0000   23.8590 C   0  0  0  0  0  3  0  0  0  0  0  0
    4.0430   39.6000   22.8200 C   0  0  0  0  0  3  0  0  0  0  0  0
    3.4410   39.9500   21.6470 C   0  0  0  0  0  3  0  0  0  0  0  0
    2.0650   39.6750   21.5210 C   0  0  0  0  0  3  0  0  0  0  0  0
    1.3270   39.0800   22.5130 C   0  0  0  0  0  0  0  0  0  0  0  0
 15 16  1  0
  6  5  2  0
  6  7  1  0
 19 18  2  0
  8  7  1  0
  5  4  1  0
  7  9  2  0
 16 18  1  0
 16 17  1  0
  4  3  1  0
  4 10  2  0
 18 14  1  0
  9 10  1  0
 20  3  1  0
 20 21  1  0
  3  2  1  0
 10  1  1  0
 13 11  2  0
 29 28  1  0
 29 30  2  0
  2  1  2  0
  2 11  1  0
 28 27  2  0
  1 14  1  0
 11 12  1  0
 21 30  1  0
 21 22  2  0
 30 25  1  0
 27 26  1  0
 22 23  1  0
 25 26  2  0
 25 24  1  0
 23 24  2  0
M  RAD  8   5   2   6   2   9   2  14   3  15   2  17   2  20   3  22   2
M  CHG  2   3   1  12  -1
M  RAD  6  23   2  24   2  26   2  27   2  28   2  29   2
M  END
>  <_TriposChargeType>  (1) 
GASTEIGER

>  <SuCOS_score>  (1) 
0.34743508276330637

>  <Volume_score>  (1) 
0.5251353441608662

>  <Feature_score>  (1) 
0.16973482136574652

$$$$
