DOCK.F40.P4k2y/L1012_ligand.pdbt
     RDKit          3D

 30 32  0  0  0  0  0  0  0  0999 V2000
   -2.5140   37.4480   22.0240 N   0  0  0  0  0  0  0  0  0  0  0  0
   -1.8650   36.6880   22.3470 H   0  0  0  0  0  0  0  0  0  0  0  0
   -6.2490   36.3600   20.4550 C   0  0  0  0  0  0  0  0  0  0  0  0
   -6.1190   37.5700   21.1010 C   0  0  0  0  0  3  0  0  0  0  0  0
   -4.8770   37.9230   21.6160 C   0  0  0  0  0  3  0  0  0  0  0  0
   -3.7770   37.1100   21.5030 C   0  0  0  0  0  0  0  0  0  0  0  0
   -3.9300   35.9050   20.8540 C   0  0  0  0  0  0  0  0  0  0  0  0
   -5.1450   35.5140   20.3280 C   0  0  0  0  0  3  0  0  0  0  0  0
   -2.5560   34.8380   20.6890 S   0  0  2  0  0  6  0  0  0  0  0  0
   -2.0000   34.8020   18.9950 C   0  0  0  0  0  1  0  0  0  0  0  0
   -2.9290   33.4080   21.0370 O   0  0  0  0  0  0  0  0  0  0  0  0
   -1.4000   35.3000   21.5200 O   0  0  0  0  0  0  0  0  0  0  0  0
   -7.5370   35.9560   19.9030 C   0  0  0  0  0  0  0  0  0  0  0  0
   -8.4070   36.8080   19.6010 O   0  0  0  0  0  0  0  0  0  0  0  0
   -7.8240   34.0650   18.4020 C   0  0  0  0  0  1  0  0  0  0  0  0
   -7.8130   34.6220   19.7070 O   0  0  0  0  0  0  0  0  0  0  0  0
   -2.0190   39.0680   22.1390 S   0  0  2  0  0  6  0  0  0  0  0  0
   -2.5470   39.6990   23.3980 O   0  0  0  0  0  0  0  0  0  0  0  0
   -2.6300   39.8500   20.9990 O   0  0  0  0  0  0  0  0  0  0  0  0
   -0.2810   39.2830   22.1720 C   0  0  0  0  0  0  0  0  0  0  0  0
    0.6950   39.9580   20.9570 S   0  0  0  0  0  0  0  0  0  0  0  0
    2.2190   39.8210   21.7080 C   0  0  0  0  0  0  0  0  0  0  0  0
    3.5210   40.1680   21.3210 C   0  0  0  0  0  3  0  0  0  0  0  0
    4.5930   39.9280   22.1680 C   0  0  0  0  0  3  0  0  0  0  0  0
    4.2780   39.3470   23.3680 C   0  0  0  0  0  0  0  0  0  0  0  0
    5.3300   39.1060   24.2130 F   0  0  0  0  0  0  0  0  0  0  0  0
    3.0200   39.0020   23.7660 C   0  0  0  0  0  3  0  0  0  0  0  0
    1.9210   39.2430   22.9090 C   0  0  0  0  0  0  0  0  0  0  0  0
    0.6190   38.9610   23.1510 C   0  0  0  0  0  0  0  0  0  0  0  0
    0.0840   38.3160   24.4280 C   0  0  0  0  0  1  0  0  0  0  0  0
 15 16  1  0
  9 10  1  6
 14 13  2  0
 16 13  1  0
 13  3  1  0
  8  3  2  0
  8  7  1  0
  3  4  1  0
  9  7  1  0
  9 11  2  0
  9 12  2  0
  7  6  2  0
 21 22  1  0
 21 20  1  0
 19 17  2  0
  4  5  2  0
 23 22  2  0
 23 24  1  0
  6  5  1  0
  6  1  1  0
 22 28  1  0
 17  1  1  6
  1  2  1  0
 17 20  1  0
 17 18  2  0
 24 25  2  0
 20 29  2  0
 28 29  1  0
 28 27  2  0
 29 30  1  0
 25 27  1  0
 25 26  1  0
M  RAD  8   4   2   5   2   8   2  10   2  15   2  23   2  24   2  27   2
M  RAD  1  30   2
M  END
>  <_TriposChargeType>  (1) 
GASTEIGER

>  <SuCOS_score>  (1) 
0.30869727079161524

>  <Volume_score>  (1) 
0.40745672436751

>  <Feature_score>  (1) 
0.2099378172157204

$$$$
