DOCK.F40.P4k2y/L1015_ligand.pdbt
     RDKit          3D

 32 35  0  0  0  0  0  0  0  0999 V2000
   -2.5360   37.5430   22.0060 N   0  0  0  0  0  0  0  0  0  0  0  0
   -1.8910   36.7830   22.3140 H   0  0  0  0  0  0  0  0  0  0  0  0
   -3.7960   37.1950   21.4930 C   0  0  0  0  0  0  0  0  0  0  0  0
   -4.9390   37.9680   21.5670 C   0  0  0  0  0  3  0  0  0  0  0  0
   -6.1590   37.6000   21.0350 C   0  0  0  0  0  3  0  0  0  0  0  0
   -6.2730   36.3990   20.3890 C   0  0  0  0  0  0  0  0  0  0  0  0
   -5.1510   35.6030   20.2970 C   0  0  0  0  0  3  0  0  0  0  0  0
   -3.9600   35.9710   20.8210 C   0  0  0  0  0  0  0  0  0  0  0  0
   -7.5320   35.9360   19.7980 C   0  0  0  0  0  0  0  0  0  0  0  0
   -8.6880   36.6940   19.8470 C   0  0  0  0  0  3  0  0  0  0  0  0
   -9.8610   36.2210   19.2760 C   0  0  0  0  0  3  0  0  0  0  0  0
   -9.8680   35.0290   18.6800 N   0  0  0  0  0  0  0  0  0  0  0  0
   -8.7670   34.2560   18.6080 C   0  0  0  0  0  3  0  0  0  0  0  0
   -7.6060   34.7160   19.1690 C   0  0  0  0  0  3  0  0  0  0  0  0
   -2.5700   34.9280   20.6780 S   0  0  1  0  0  6  0  0  0  0  0  0
   -1.9950   34.9890   19.0000 C   0  0  0  0  0  1  0  0  0  0  0  0
   -1.4810   35.4120   21.5920 O   0  0  0  0  0  0  0  0  0  0  0  0
   -2.8920   33.5200   21.0980 O   0  0  0  0  0  0  0  0  0  0  0  0
   -2.0380   39.1620   22.1360 S   0  0  2  0  0  6  0  0  0  0  0  0
   -2.6500   39.7510   23.3990 O   0  0  0  0  0  0  0  0  0  0  0  0
   -2.5980   39.9770   21.0000 O   0  0  0  0  0  0  0  0  0  0  0  0
    0.0470   38.3780   24.4590 C   0  0  0  0  0  1  0  0  0  0  0  0
    0.5910   38.9990   23.1800 C   0  0  0  0  0  0  0  0  0  0  0  0
   -0.2990   39.3290   22.2000 C   0  0  0  0  0  0  0  0  0  0  0  0
    0.6750   39.9750   20.9750 S   0  0  0  0  0  0  0  0  0  0  0  0
    2.2090   39.8160   21.7310 C   0  0  0  0  0  0  0  0  0  0  0  0
    3.5110   40.1360   21.3330 C   0  0  0  0  0  3  0  0  0  0  0  0
    4.5810   39.8900   22.1670 C   0  0  0  0  0  3  0  0  0  0  0  0
    4.2610   39.3230   23.3820 C   0  0  0  0  0  0  0  0  0  0  0  0
    5.3050   39.0720   24.2220 F   0  0  0  0  0  0  0  0  0  0  0  0
    2.9970   39.0040   23.7860 C   0  0  0  0  0  3  0  0  0  0  0  0
    1.8940   39.2520   22.9360 C   0  0  0  0  0  0  0  0  0  0  0  0
 13 12  2  0
 13 14  1  0
 12 11  1  0
 15 16  1  6
 14  9  2  0
 11 10  2  0
  9 10  1  0
  9  6  1  0
  7  6  2  0
  7  8  1  0
  6  5  1  0
 15  8  1  0
 15 18  2  0
 15 17  2  0
  8  3  2  0
 25 26  1  0
 25 24  1  0
 21 19  2  0
  5  4  2  0
 27 26  1  0
 27 28  2  0
  3  4  1  0
  3  1  1  0
 26 32  2  0
 19  1  1  6
  1  2  1  0
 19 24  1  0
 19 20  2  0
 28 29  1  0
 24 23  2  0
 32 23  1  0
 32 31  1  0
 23 22  1  0
 29 31  2  0
 29 30  1  0
M  RAD  8   4   2   5   2   7   2  10   2  11   2  13   2  14   2  16   2
M  RAD  4  22   2  27   2  28   2  31   2
M  END
>  <_TriposChargeType>  (1) 
GASTEIGER

>  <SuCOS_score>  (1) 
0.3086300019070215

>  <Volume_score>  (1) 
0.41107068033961847

>  <Feature_score>  (1) 
0.20618932347442454

$$$$
