DOCK.F40.P4k2y/L1014_ligand.pdbt
     RDKit          3D

 24 27  0  0  0  0  0  0  0  0999 V2000
   -0.6250   39.0710   21.0880 C   0  0  0  0  0  2  0  0  0  0  0  0
    1.6000   40.2150   20.5110 C   0  0  0  0  0  1  0  0  0  0  0  0
    2.1220   39.6580   21.7450 C   0  0  0  0  0  0  0  0  0  0  0  0
    3.4730   39.8210   22.1110 C   0  0  0  0  0  3  0  0  0  0  0  0
    3.9880   39.4060   23.3050 C   0  0  0  0  0  3  0  0  0  0  0  0
    3.1580   38.8000   24.1990 C   0  0  0  0  0  3  0  0  0  0  0  0
    1.8190   38.6140   23.8910 C   0  0  0  0  0  0  0  0  0  0  0  0
    1.0020   38.0490   24.8320 C   0  0  0  0  0  3  0  0  0  0  0  0
   -0.3210   37.9040   24.5590 C   0  0  0  0  0  3  0  0  0  0  0  0
   -0.8170   38.3070   23.3770 C   0  0  0  0  0  3  0  0  0  0  0  0
   -0.0310   38.8990   22.3440 C   0  0  0  0  0  0  0  0  0  0  0  0
    1.2920   39.0380   22.6600 C   0  0  0  0  0  0  0  0  0  0  0  0
   -2.0620   38.6160   21.1990 N   0  0  0  0  0  0  0  0  0  0  0  0
   -3.1270   39.3320   21.5810 C   0  0  0  0  0  0  0  0  0  0  0  0
   -4.2370   38.4520   21.6070 C   0  0  0  0  0  3  0  0  0  0  0  0
   -3.8240   37.2040   21.2380 C   0  0  0  0  0  0  0  0  0  0  0  0
   -4.4650   35.9700   21.1080 C   0  0  0  0  0  3  0  0  0  0  0  0
   -3.7750   34.8450   20.7320 C   0  0  0  0  0  3  0  0  0  0  0  0
   -2.4300   34.9760   20.4890 C   0  0  0  0  0  3  0  0  0  0  0  0
   -1.8000   36.2020   20.6190 C   0  0  0  0  0  3  0  0  0  0  0  0
   -2.4650   37.3450   20.9930 C   0  0  0  0  0  0  0  0  0  0  0  0
   -3.2330   40.7270   21.9190 C   0  0  0  0  0  0  0  0  0  0  0  0
   -3.8010   41.0410   23.0340 O   0  0  0  0  0  1  0  0  0  0  0  0
   -2.7990   41.8000   21.2000 O   0  0  0  0  0  0  0  0  0  0  0  0
 19 20  1  0
 19 18  2  0
  2  3  1  0
 20 21  2  0
 18 17  1  0
 21 13  1  0
 21 16  1  0
  1 13  1  0
  1 11  1  0
 17 16  2  0
 13 14  1  0
 24 22  2  0
 16 15  1  0
 14 15  2  0
 14 22  1  0
  3  4  2  0
  3 12  1  0
 22 23  1  0
  4  5  1  0
 11 12  2  0
 11 10  1  0
 12  7  1  0
  5  6  2  0
 10  9  2  0
  7  6  1  0
  7  8  2  0
  9  8  1  0
M  RAD  8   1   3   2   2   4   2   5   2   6   2   8   2   9   2  10   2
M  CHG  1  23  -1
M  RAD  5  15   2  17   2  18   2  19   2  20   2
M  END
>  <_TriposChargeType>  (1) 
GASTEIGER

>  <SuCOS_score>  (1) 
0.335060713883257

>  <Volume_score>  (1) 
0.40658490774500056

>  <Feature_score>  (1) 
0.2635365200215134

$$$$
