DOCK.F10.P5yjm/L1005_ligand.pdbt
     RDKit          3D

 31 34  0  0  0  0  0  0  0  0999 V2000
   -4.1390   39.0720   21.5240 C   0  0  0  0  0  0  0  0  0  0  0  0
   -3.1150   40.0390   21.6240 C   0  0  0  0  0  0  0  0  0  0  0  0
   -1.9330   39.4690   21.4350 N   0  0  0  0  0  4  0  0  0  0  0  0
   -2.1470   38.1130   21.2110 C   0  0  0  0  0  0  0  0  0  0  0  0
   -1.1980   37.1370   21.0000 C   0  0  0  0  0  3  0  0  0  0  0  0
   -1.6540   35.8210   20.8370 C   0  0  0  0  0  3  0  0  0  0  0  0
   -3.0010   35.5560   20.8900 C   0  0  0  0  0  0  0  0  0  0  0  0
   -3.4660   34.2700   20.7280 F   0  0  0  0  0  0  0  0  0  0  0  0
   -3.9170   36.5700   21.1040 C   0  0  0  0  0  3  0  0  0  0  0  0
   -3.5060   37.8820   21.2690 C   0  0  0  0  0  0  0  0  0  0  0  0
   -3.4360   41.4340   21.9290 C   0  0  0  0  0  0  0  0  0  0  0  0
   -3.0190   42.3990   21.2000 O   0  0  0  0  0  1  0  0  0  0  0  0
   -4.2000   41.8390   22.9980 O   0  0  0  0  0  0  0  0  0  0  0  0
   -5.5660   39.3600   21.7000 C   0  0  0  0  0  2  0  0  0  0  0  0
   -7.1390   41.1880   20.9740 C   0  0  0  0  0  0  0  0  0  0  0  0
   -7.3500   41.4880   22.1890 O   0  0  0  0  0  0  0  0  0  0  0  0
   -6.2440   40.1160   20.7120 N   0  0  0  0  0  0  0  0  0  0  0  0
   -6.1020   39.9100   19.6670 H   0  0  0  0  0  0  0  0  0  0  0  0
   -8.6000   41.2690   18.9990 C   0  0  0  0  0  1  0  0  0  0  0  0
   -7.7710   41.8940   19.9530 O   0  0  0  0  0  0  0  0  0  0  0  0
   -0.6060   40.0570   21.4910 C   0  0  0  0  0  2  0  0  0  0  0  0
    0.0960   39.6710   22.6990 C   0  0  0  0  0  0  0  0  0  0  0  0
   -0.6020   39.2860   23.8330 C   0  0  0  0  0  3  0  0  0  0  0  0
   -0.0250   38.8040   24.9860 C   0  0  0  0  0  3  0  0  0  0  0  0
    1.3500   38.7080   24.9890 C   0  0  0  0  0  3  0  0  0  0  0  0
    2.0880   39.0740   23.9090 C   0  0  0  0  0  0  0  0  0  0  0  0
    3.4510   39.0000   24.0000 C   0  0  0  0  0  3  0  0  0  0  0  0
    4.2590   39.4080   22.9450 C   0  0  0  0  0  3  0  0  0  0  0  0
    3.6400   39.8940   21.7980 C   0  0  0  0  0  3  0  0  0  0  0  0
    2.2670   39.9710   21.7000 C   0  0  0  0  0  3  0  0  0  0  0  0
    1.4710   39.5640   22.7410 C   0  0  0  0  0  0  0  0  0  0  0  0
 19 20  1  0
 18 17  1  0
 20 15  1  0
 17 15  1  0
 17 14  1  0
  8  7  1  0
  6  7  2  0
  6  5  1  0
  7  9  1  0
 15 16  2  0
  5  4  2  0
  9 10  2  0
 12 11  1  0
  4 10  1  0
  4  3  1  0
 10  1  1  0
  3 21  1  0
  3  2  1  0
 21 22  1  0
  1  2  2  0
  1 14  1  0
  2 11  1  0
 30 29  1  0
 30 31  2  0
 29 28  2  0
 11 13  2  0
 22 31  1  0
 22 23  2  0
 31 26  1  0
 28 27  1  0
 23 24  1  0
 26 27  2  0
 26 25  1  0
 24 25  2  0
M  RAD  8   5   2   6   2   9   2  14   3  19   2  21   3  23   2  24   2
M  CHG  2   3   1  12  -1
M  RAD  5  25   2  27   2  28   2  29   2  30   2
M  END
>  <_TriposChargeType>  (1) 
GASTEIGER

>  <SuCOS_score>  (1) 
0.37896412104090116

>  <Volume_score>  (1) 
0.539608882996354

>  <Feature_score>  (1) 
0.21831935908544828

$$$$
