DOCK.F10.P5yjm/L1002_ligand.pdbt
     RDKit          3D

 40 44  0  0  0  0  0  0  0  0999 V2000
   -2.0940   35.3150   22.8670 C   0  0  0  0  0  3  0  0  0  0  0  0
    1.3740   40.0680   21.6070 C   0  0  0  0  0  0  0  0  0  0  0  0
    0.2090   40.8000   21.7290 C   0  0  0  0  0  3  0  0  0  0  0  0
   -0.9540   40.1470   22.0280 C   0  0  0  0  0  3  0  0  0  0  0  0
   -0.9410   38.7660   22.2040 C   0  0  0  0  0  0  0  0  0  0  0  0
   -1.9220   37.8500   22.5050 C   0  0  0  0  0  0  0  0  0  0  0  0
   -1.3790   36.5840   22.5680 C   0  0  0  0  0  0  0  0  0  0  0  0
   -0.0600   36.7110   22.3070 N   0  0  0  0  0  0  0  0  0  0  0  0
    0.2250   38.0200   22.0850 C   0  0  0  0  0  0  0  0  0  0  0  0
    1.3970   38.6960   21.7810 C   0  0  0  0  0  3  0  0  0  0  0  0
    0.6830   35.9790   22.2640 H   0  0  0  0  0  0  0  0  0  0  0  0
    3.8000   39.8880   21.1990 C   0  0  0  0  0  1  0  0  0  0  0  0
    2.6140   40.8280   21.2810 C   0  0  0  0  0  2  0  0  0  0  0  0
   -3.3390   38.1880   22.7200 C   0  0  0  0  0  2  0  0  0  0  0  0
   -3.9590   38.9440   21.6000 C   0  0  0  0  0  2  0  0  0  0  0  0
   -4.3900   40.2380   22.0590 N   0  0  0  0  0  0  0  0  0  0  0  0
   -4.6990   41.3290   21.2380 C   0  0  0  0  0  0  0  0  0  0  0  0
   -5.1490   42.6560   21.8030 C   0  0  0  0  0  1  0  0  0  0  0  0
   -4.6000   41.1990   19.9890 O   0  0  0  0  0  0  0  0  0  0  0  0
   -4.4780   40.3710   23.1080 H   0  0  0  0  0  0  0  0  0  0  0  0
   -2.9190   34.8750   21.6910 C   0  0  0  0  0  0  0  0  0  0  0  0
   -2.8540   35.2420   20.4470 C   0  0  0  0  0  0  0  0  0  0  0  0
   -1.9540   36.1740   19.9100 O   0  0  0  0  0  0  0  0  0  0  0  0
   -3.8650   34.5540   19.6080 C   0  0  0  0  0  3  0  0  0  0  0  0
   -4.4610   33.5050   20.4850 C   0  0  0  0  0  2  0  0  0  0  0  0
   -3.9850   33.8920   21.8320 C   0  0  0  0  0  0  0  0  0  0  0  0
   -4.4570   33.4210   22.9140 O   0  0  0  0  0  0  0  0  0  0  0  0
   -1.4530   35.8910   19.0740 H   0  0  0  0  0  0  0  0  0  0  0  0
   -3.2620   33.9650   18.3890 C   0  0  0  0  0  0  0  0  0  0  0  0
   -4.0380   33.2000   17.5510 C   0  0  0  0  0  3  0  0  0  0  0  0
   -3.5130   32.6270   16.4000 C   0  0  0  0  0  3  0  0  0  0  0  0
   -2.1790   32.8310   16.0910 C   0  0  0  0  0  3  0  0  0  0  0  0
   -1.4000   33.6000   16.9350 C   0  0  0  0  0  3  0  0  0  0  0  0
   -1.9420   34.1600   18.0720 C   0  0  0  0  0  3  0  0  0  0  0  0
   -1.1210   34.2730   23.2600 C   0  0  0  0  0  0  0  0  0  0  0  0
   -0.7430   34.1980   24.5760 C   0  0  0  0  0  3  0  0  0  0  0  0
    0.1570   33.2540   25.0030 C   0  0  0  0  0  3  0  0  0  0  0  0
    0.6990   32.3630   24.1030 C   0  0  0  0  0  3  0  0  0  0  0  0
    0.3050   32.4560   22.7870 C   0  0  0  0  0  3  0  0  0  0  0  0
   -0.6010   33.4030   22.3550 C   0  0  0  0  0  3  0  0  0  0  0  0
 32 31  1  0
 32 33  2  0
 31 30  2  0
 33 34  1  0
 30 29  1  0
 34 29  2  0
 29 24  1  0
 28 23  1  0
 24 22  1  0
 24 25  1  0
 23 22  1  0
 19 17  2  0
 22 21  2  0
 25 26  1  0
 12 13  1  0
 17 18  1  0
 17 16  1  0
 13  2  1  0
 15 16  1  0
 15 14  1  0
  2  3  2  0
  2 10  1  0
 21 26  1  0
 21  1  1  0
  3  4  1  0
 10  9  2  0
 26 27  2  0
  4  5  2  0
 16 20  1  0
  9  5  1  0
  9  8  1  0
  5  6  1  0
 11  8  1  0
  8  7  1  0
 40 39  2  0
 40 35  1  0
  6  7  2  0
  6 14  1  0
  7  1  1  0
 39 38  1  0
  1 35  1  0
 35 36  2  0
 38 37  2  0
 36 37  1  0
M  RAD  8   1   2   3   2   4   2  10   2  12   2  13   3  14   3  15   3
M  RAD  8  18   2  24   2  25   3  30   2  31   2  32   2  33   2  34   2
M  RAD  5  36   2  37   2  38   2  39   2  40   2
M  END
>  <_TriposChargeType>  (1) 
GASTEIGER

>  <SuCOS_score>  (1) 
0.27883097550204217

>  <Volume_score>  (1) 
0.42184390891001544

>  <Feature_score>  (1) 
0.13581804209406895

$$$$
