DOCK.F10.P5yjm/L1003_ligand.pdbt
     RDKit          3D

 32 35  0  0  0  0  0  0  0  0999 V2000
   -2.2690   36.6570   23.4190 N   0  0  0  0  0  0  0  0  0  0  0  0
   -2.4700   36.0600   24.2800 H   0  0  0  0  0  0  0  0  0  0  0  0
   -2.3890   36.0280   22.1810 C   0  0  0  0  0  0  0  0  0  0  0  0
   -3.2960   36.4320   21.2140 C   0  0  0  0  0  3  0  0  0  0  0  0
   -3.4040   35.7850   19.9940 C   0  0  0  0  0  3  0  0  0  0  0  0
   -2.6040   34.7050   19.6970 C   0  0  0  0  0  0  0  0  0  0  0  0
   -1.7000   34.2910   20.6430 C   0  0  0  0  0  3  0  0  0  0  0  0
   -1.5970   34.9450   21.8670 C   0  0  0  0  0  0  0  0  0  0  0  0
   -2.6700   33.9850   18.4340 C   0  0  0  0  0  0  0  0  0  0  0  0
   -1.5670   33.8740   17.6030 C   0  0  0  0  0  3  0  0  0  0  0  0
   -1.5970   33.2000   16.4010 C   0  0  0  0  0  3  0  0  0  0  0  0
   -2.7630   32.6180   16.0150 N   0  0  0  0  0  0  0  0  0  0  0  0
   -3.8430   32.7120   16.8000 C   0  0  0  0  0  3  0  0  0  0  0  0
   -3.8340   33.3810   18.0060 C   0  0  0  0  0  3  0  0  0  0  0  0
   -0.6000   34.4130   22.8120 C   0  0  2  0  0  0  0  0  0  0  0  0
   -1.1250   34.0180   24.0100 F   0  0  0  0  0  0  0  0  0  0  0  0
    0.4000   35.3810   22.9900 F   0  0  0  0  0  0  0  0  0  0  0  0
    0.0560   33.3200   22.2840 F   0  0  0  0  0  0  0  0  0  0  0  0
   -1.8390   38.2800   23.7320 S   0  0  1  0  0  6  0  0  0  0  0  0
   -2.7790   39.2320   23.0280 O   0  0  0  0  0  0  0  0  0  0  0  0
   -2.0110   38.6010   25.2130 O   0  0  0  0  0  0  0  0  0  0  0  0
    1.0000   38.1130   25.4310 C   0  0  0  0  0  1  0  0  0  0  0  0
    0.9920   38.5880   23.9850 C   0  0  0  0  0  0  0  0  0  0  0  0
   -0.1820   38.6380   23.3090 C   0  0  0  0  0  0  0  0  0  0  0  0
    0.2910   39.2040   21.7580 S   0  0  0  0  0  0  0  0  0  0  0  0
    1.9650   39.3570   22.0220 C   0  0  0  0  0  0  0  0  0  0  0  0
    3.0180   39.7700   21.2040 C   0  0  0  0  0  3  0  0  0  0  0  0
    4.3100   39.8000   21.6820 C   0  0  0  0  0  3  0  0  0  0  0  0
    4.4640   39.4000   22.9930 C   0  0  0  0  0  0  0  0  0  0  0  0
    5.7430   39.4260   23.4760 F   0  0  0  0  0  0  0  0  0  0  0  0
    3.4400   38.9940   23.8020 C   0  0  0  0  0  3  0  0  0  0  0  0
    2.1160   38.9620   23.3170 C   0  0  0  0  0  0  0  0  0  0  0  0
 12 11  1  0
 12 13  2  0
 11 10  2  0
 13 14  1  0
 10  9  1  0
 14  9  2  0
  9  6  1  0
  6  5  1  0
  6  7  2  0
  5  4  2  0
  7  8  1  0
 27 28  2  0
 27 26  1  0
  4  3  1  0
 28 29  1  0
 25 26  1  0
 25 24  1  0
  8  3  2  0
  8 15  1  0
 26 32  2  0
  3  1  1  0
 15 18  1  6
 15 17  1  0
 15 16  1  0
 29 30  1  0
 29 31  2  0
 20 19  2  0
 24 19  1  0
 24 23  2  0
 32 31  1  0
 32 23  1  0
 19  1  1  1
  1  2  1  0
 19 21  2  0
 23 22  1  0
M  RAD  8   4   2   5   2   7   2  10   2  11   2  13   2  14   2  22   2
M  RAD  3  27   2  28   2  31   2
M  END
>  <_TriposChargeType>  (1) 
GASTEIGER

>  <SuCOS_score>  (1) 
0.2728654746429033

>  <Volume_score>  (1) 
0.3971545163780743

>  <Feature_score>  (1) 
0.14857643290773226

$$$$
