DOCK.F10.P5yjm/L1010_ligand.pdbt
     RDKit          3D

 24 27  0  0  0  0  0  0  0  0999 V2000
   -3.2080   39.9510   21.7070 C   0  0  0  0  0  0  0  0  0  0  0  0
   -4.1750   39.0160   21.4010 C   0  0  0  0  0  3  0  0  0  0  0  0
   -3.5200   37.8240   21.2010 C   0  0  0  0  0  0  0  0  0  0  0  0
   -3.9840   36.5440   20.8670 C   0  0  0  0  0  3  0  0  0  0  0  0
   -3.1250   35.4830   20.7170 C   0  0  0  0  0  3  0  0  0  0  0  0
   -1.7910   35.7050   20.8990 C   0  0  0  0  0  3  0  0  0  0  0  0
   -1.3310   36.9630   21.2270 C   0  0  0  0  0  3  0  0  0  0  0  0
   -2.1910   38.0480   21.3830 C   0  0  0  0  0  0  0  0  0  0  0  0
   -2.0130   39.3400   21.6900 N   0  0  0  0  0  0  0  0  0  0  0  0
   -4.1850   41.6230   23.0020 O   0  0  0  0  0  1  0  0  0  0  0  0
   -3.5010   41.3550   21.9930 C   0  0  0  0  0  0  0  0  0  0  0  0
   -3.0600   42.3990   21.2020 O   0  0  0  0  0  0  0  0  0  0  0  0
   -0.7510   39.9480   21.9520 C   0  0  0  0  0  2  0  0  0  0  0  0
   -0.0390   39.4060   23.1100 C   0  0  0  0  0  0  0  0  0  0  0  0
   -0.6730   38.8660   24.2030 C   0  0  0  0  0  3  0  0  0  0  0  0
    0.1040   38.3870   25.2330 C   0  0  0  0  0  3  0  0  0  0  0  0
    1.4820   38.4280   25.2110 C   0  0  0  0  0  3  0  0  0  0  0  0
    2.1320   38.9730   24.1050 C   0  0  0  0  0  0  0  0  0  0  0  0
    3.5090   39.0230   24.0630 C   0  0  0  0  0  3  0  0  0  0  0  0
    4.1200   39.5690   22.9560 C   0  0  0  0  0  3  0  0  0  0  0  0
    3.3860   40.0540   21.9130 C   0  0  0  0  0  0  0  0  0  0  0  0
    3.9520   40.6010   20.8000 F   0  0  0  0  0  0  0  0  0  0  0  0
    2.0200   39.9870   21.9910 C   0  0  0  0  0  3  0  0  0  0  0  0
    1.3400   39.4450   23.0890 C   0  0  0  0  0  0  0  0  0  0  0  0
  5  4  1  0
  5  6  2  0
 22 21  1  0
  4  3  2  0
  6  7  1  0
  3  8  1  0
  3  2  1  0
 12 11  2  0
  7  8  2  0
  8  9  1  0
  2  1  2  0
  9  1  1  0
  9 13  1  0
  1 11  1  0
 21 23  1  0
 21 20  2  0
 13 14  1  0
 23 24  2  0
 11 10  1  0
 20 19  1  0
 24 14  1  0
 24 18  1  0
 14 15  2  0
 19 18  2  0
 18 17  1  0
 15 16  1  0
 17 16  2  0
M  RAD  8   2   2   4   2   5   2   6   2   7   2  13   3  15   2  16   2
M  CHG  1  10  -1
M  RAD  4  17   2  19   2  20   2  23   2
M  END
>  <_TriposChargeType>  (1) 
GASTEIGER

>  <SuCOS_score>  (1) 
0.3419327341057437

>  <Volume_score>  (1) 
0.4388465362943321

>  <Feature_score>  (1) 
0.24501893191715526

$$$$
