DOCK.F10.P5yjm/L1015_ligand.pdbt
     RDKit          3D

 32 35  0  0  0  0  0  0  0  0999 V2000
   -2.6120   37.6600   22.3580 N   0  0  0  0  0  0  0  0  0  0  0  0
   -2.8510   37.3570   23.3270 H   0  0  0  0  0  0  0  0  0  0  0  0
   -2.7260   36.7280   21.3110 C   0  0  0  0  0  0  0  0  0  0  0  0
   -1.6860   36.2620   20.5310 C   0  0  0  0  0  3  0  0  0  0  0  0
   -1.8330   35.3330   19.5200 C   0  0  0  0  0  3  0  0  0  0  0  0
   -3.0750   34.8240   19.2530 C   0  0  0  0  0  0  0  0  0  0  0  0
   -4.1350   35.2680   20.0150 C   0  0  0  0  0  3  0  0  0  0  0  0
   -3.9820   36.1790   21.0030 C   0  0  0  0  0  0  0  0  0  0  0  0
   -3.3130   33.8350   18.1980 C   0  0  0  0  0  0  0  0  0  0  0  0
   -4.4070   32.9890   18.2190 C   0  0  0  0  0  3  0  0  0  0  0  0
   -4.5990   32.0660   17.2000 C   0  0  0  0  0  3  0  0  0  0  0  0
   -3.7190   31.9980   16.2010 N   0  0  0  0  0  0  0  0  0  0  0  0
   -2.6400   32.8000   16.1380 C   0  0  0  0  0  3  0  0  0  0  0  0
   -2.4450   33.7140   17.1390 C   0  0  0  0  0  3  0  0  0  0  0  0
   -5.3550   36.7090   21.9380 S   0  0  1  0  0  6  0  0  0  0  0  0
   -5.9970   38.1890   21.2000 C   0  0  0  0  0  1  0  0  0  0  0  0
   -6.4170   35.6470   21.9200 O   0  0  0  0  0  0  0  0  0  0  0  0
   -4.9890   36.9280   23.3800 O   0  0  0  0  0  0  0  0  0  0  0  0
   -2.0970   39.2540   22.0840 S   0  0  2  0  0  6  0  0  0  0  0  0
   -2.6700   40.1380   23.1840 O   0  0  0  0  0  0  0  0  0  0  0  0
   -2.6800   39.7830   20.8000 O   0  0  0  0  0  0  0  0  0  0  0  0
    0.0450   38.9880   24.4720 C   0  0  0  0  0  1  0  0  0  0  0  0
    0.5590   39.2940   23.0720 C   0  0  0  0  0  0  0  0  0  0  0  0
   -0.3560   39.4060   22.0650 C   0  0  0  0  0  0  0  0  0  0  0  0
    0.5900   39.7410   20.7010 S   0  0  0  0  0  0  0  0  0  0  0  0
    2.1430   39.7350   21.4350 C   0  0  0  0  0  0  0  0  0  0  0  0
    3.4360   39.9370   20.9430 C   0  0  0  0  0  3  0  0  0  0  0  0
    4.5260   39.8710   21.7830 C   0  0  0  0  0  3  0  0  0  0  0  0
    4.2360   39.6000   23.1030 C   0  0  0  0  0  0  0  0  0  0  0  0
    5.3000   39.5310   23.9510 F   0  0  0  0  0  0  0  0  0  0  0  0
    2.9810   39.4000   23.6010 C   0  0  0  0  0  3  0  0  0  0  0  0
    1.8570   39.4650   22.7450 C   0  0  0  0  0  0  0  0  0  0  0  0
 13 12  2  0
 13 14  1  0
 12 11  1  0
 14  9  2  0
 11 10  2  0
  9 10  1  0
  9  6  1  0
  6  5  1  0
  6  7  2  0
  5  4  2  0
  7  8  1  0
  4  3  1  0
 25 26  1  0
 25 24  1  0
 21 19  2  0
 27 26  1  0
 27 28  2  0
  8  3  2  0
  8 15  1  0
 15 16  1  6
  3  1  1  0
 26 32  2  0
 28 29  1  0
 17 15  2  0
 15 18  2  0
 24 19  1  0
 24 23  2  0
 19  1  1  1
 19 20  2  0
  1  2  1  0
 32 23  1  0
 32 31  1  0
 23 22  1  0
 29 31  2  0
 29 30  1  0
M  RAD  8   4   2   5   2   7   2  10   2  11   2  13   2  14   2  16   2
M  RAD  4  22   2  27   2  28   2  31   2
M  END
>  <_TriposChargeType>  (1) 
GASTEIGER

>  <SuCOS_score>  (1) 
0.3390861879958218

>  <Volume_score>  (1) 
0.46942844483828094

>  <Feature_score>  (1) 
0.20874393115336268

$$$$
